version 2
run Wireless01-0-20210217-10:27:51-21020
attr configname Wireless01
attr datetime 20210217-10:27:51
attr experiment Wireless01
attr inifile omnetpp.ini
attr iterationvars ""
attr iterationvarsf ""
attr measurement ""
attr network WirelessNetwork
attr processid 21020
attr repetition 0
attr replication #0
attr resultdir results
attr runnumber 0
attr seedset 0
param *.host*.ipv4.arp.typename "\"GlobalArp\""
param *.hostA.numApps 1
param *.hostA.app[0].typename "\"UdpBasicApp\""
param *.hostA.app[0].destAddresses "\"hostB\""
param *.hostA.app[0].destPort 5000
param *.hostA.app[0].messageLength 1000B
param *.hostA.app[0].sendInterval exponential(12ms)
param *.hostA.app[0].packetName "\"UDPData\""
param *.hostB.numApps 1
param *.hostB.app[0].typename "\"UdpSink\""
param *.hostB.app[0].localPort 5000
param *.host*.wlan[0].typename "\"AckingWirelessInterface\""
param *.host*.wlan[0].mac.useAck false
param *.host*.wlan[0].mac.fullDuplex false
param *.host*.wlan[0].radio.transmitter.communicationRange 500m
param *.hostA.wlan[0].radio.displayCommunicationRange true
param *.host*.wlan[0].radio.receiver.ignoreInterference true
param *.host*.wlan[0].mac.headerLength 23B
param *.host*.**.bitrate 1Mbps

vector 0 WirelessNetwork.hostA.wlan[0].radio radioMode:vector ETV
attr interpolationmode sample-hold
attr source radioModeChanged
attr title "Radio mode, vector"
vector 1 WirelessNetwork.hostB.wlan[0].radio radioMode:vector ETV
attr interpolationmode sample-hold
attr source radioModeChanged
attr title "Radio mode, vector"
vector 2 WirelessNetwork.hostA.wlan[0].radio receptionState:vector ETV
attr interpolationmode sample-hold
attr source receptionStateChanged
attr title "Radio reception state, vector"
vector 3 WirelessNetwork.hostB.wlan[0].radio receptionState:vector ETV
attr interpolationmode sample-hold
attr source receptionStateChanged
attr title "Radio reception state, vector"
vector 4 WirelessNetwork.hostA.app[0] packetSent:vector(packetBytes) ETV
attr interpolationmode none
attr source packetSent
attr title "packets sent, vector(packetBytes)"
vector 5 WirelessNetwork.hostA.udp packetSent:vector(packetBytes) ETV
attr interpolationmode none
attr source packetSent
attr title "packets sent, vector(packetBytes)"
vector 6 WirelessNetwork.hostA.wlan[0].mac rcvdPkFromHl:vector(packetBytes) ETV
attr interpolationmode none
attr source packetReceivedFromUpper
attr title "packets received from higher layer, vector(packetBytes)"
vector 7 WirelessNetwork.hostA.wlan[0].mac.queue packetPushed:vector(packetBytes) ETV
attr interpolationmode none
attr title "packet pushed, vector(packetBytes)"
vector 8 WirelessNetwork.hostA.wlan[0].mac.queue queueLength:vector ETV
attr interpolationmode sample-hold
attr source "count(packetPushed) - count(packetPopped) - count(packetRemoved) - count(packetDropped)"
attr title "queue length, vector"
vector 9 WirelessNetwork.hostA.wlan[0].mac.queue packetPopped:vector(packetBytes) ETV
attr interpolationmode none
attr title "packet popped, vector(packetBytes)"
vector 10 WirelessNetwork.hostA.wlan[0].mac.queue queueingTime:vector ETV
attr interpolationmode none
attr source queueingTime(packetPopped)
attr title "queueing times, vector"
attr unit s
vector 11 WirelessNetwork.hostA.wlan[0].radio transmissionState:vector ETV
attr interpolationmode sample-hold
attr source transmissionStateChanged
attr title "Radio transmission state, vector"
vector 12 WirelessNetwork.hostA.wlan[0].mac sentDownPk:vector(packetBytes) ETV
attr interpolationmode none
attr source packetSentToLower
attr title "packets sent to lower layer, vector(packetBytes)"
vector 13 WirelessNetwork.hostA.app[0] throughput:vector ETV
attr source throughput(packetReceived)
attr title "throughput, vector"
attr unit bps
vector 14 WirelessNetwork.hostB.app[0] throughput:vector ETV
attr source throughput(packetReceived)
attr title "throughput, vector"
attr unit bps
0	0	0	0
0	0	0	0
0	0	0	2
0	8	0.022315250545	3
0	15	0.030819250545	2
0	15	0.030819250545	3
0	19	0.039323250545	2
0	25	0.041385743993	3
0	33	0.049889743993	2
0	33	0.049889743993	3
0	37	0.058393743993	2
0	44	0.07497426742	3
0	47	0.08347826742	2
0	53	0.114753214779	3
0	60	0.123257214779	2
0	60	0.123257214779	3
0	64	0.131761214779	2
0	70	0.139383193449	3
0	74	0.147887193449	2
0	79	0.148415282809	3
0	82	0.156919282809	2
0	88	0.158488477044	3
0	92	0.166992477044	2
0	98	0.189667526074	3
0	113	0.198171526074	2
0	113	0.198171526074	3
0	117	0.206675526074	2
0	117	0.206675526074	3
0	126	0.215179526074	2
0	126	0.215179526074	3
0	131	0.223683526074	2
0	131	0.223683526074	3
0	140	0.232187526074	2
0	140	0.232187526074	3
0	145	0.240691526074	2
0	152	0.255893823874	3
0	155	0.264397823874	2
0	161	0.302036486304	3
0	164	0.310540486304	2
0	170	0.321299360989	3
0	177	0.329803360989	2
0	177	0.329803360989	3
0	181	0.338307360989	2
0	187	0.346924946193	3
0	195	0.355428946193	2
0	195	0.355428946193	3
0	207	0.363932946193	2
0	207	0.363932946193	3
0	212	0.372436946193	2
0	212	0.372436946193	3
0	217	0.380940946193	2
0	224	0.3972824235	3
0	227	0.4057864235	2
0	232	0.406136351001	3
0	239	0.414640351001	2
0	239	0.414640351001	3
0	248	0.423144351001	2
0	248	0.423144351001	3
0	253	0.431648351001	2
0	259	0.434109561779	3
0	267	0.442613561779	2
0	267	0.442613561779	3
0	271	0.451117561779	2
0	276	0.451502567324	3
0	284	0.460006567324	2
0	284	0.460006567324	3
0	293	0.468510567324	2
0	293	0.468510567324	3
0	302	0.477014567324	2
0	302	0.477014567324	3
0	307	0.485518567324	2
0	312	0.486145297277	3
0	316	0.494649297277	2
0	323	0.520680277532	3
0	326	0.529184277532	2
0	331	0.534421944988	3
0	339	0.542925944988	2
0	339	0.542925944988	3
0	347	0.551429944988	2
0	347	0.551429944988	3
0	352	0.559933944988	2
0	357	0.561015849403	3
0	365	0.569519849403	2
0	365	0.569519849403	3
0	374	0.578023849403	2
0	374	0.578023849403	3
0	379	0.586527849403	2
0	385	0.588275351848	3
0	397	0.596779351848	2
0	397	0.596779351848	3
0	409	0.605283351848	2
0	409	0.605283351848	3
0	418	0.613787351848	2
0	418	0.613787351848	3
0	427	0.622291351848	2
0	427	0.622291351848	3
0	432	0.630795351848	2
0	432	0.630795351848	3
0	437	0.639299351848	2
0	437	0.639299351848	3
0	442	0.647803351848	2
0	449	0.673253932282	3
0	464	0.681757932282	2
0	464	0.681757932282	3
0	468	0.690261932282	2
0	468	0.690261932282	3
0	481	0.698765932282	2
0	481	0.698765932282	3
0	494	0.707269932282	2
0	494	0.707269932282	3
0	507	0.715773932282	2
0	507	0.715773932282	3
0	516	0.724277932282	2
0	516	0.724277932282	3
0	529	0.732781932282	2
0	529	0.732781932282	3
0	538	0.741285932282	2
0	538	0.741285932282	3
0	543	0.749789932282	2
0	543	0.749789932282	3
0	556	0.758293932282	2
0	556	0.758293932282	3
0	561	0.766797932282	2
0	561	0.766797932282	3
0	566	0.775301932282	2
0	566	0.775301932282	3
0	579	0.783805932282	2
0	579	0.783805932282	3
0	584	0.792309932282	2
0	584	0.792309932282	3
0	589	0.800813932282	2
0	589	0.800813932282	3
0	594	0.809317932282	2
0	594	0.809317932282	3
0	599	0.817821932282	2
0	599	0.817821932282	3
0	608	0.826325932282	2
0	608	0.826325932282	3
0	617	0.834829932282	2
0	617	0.834829932282	3
0	622	0.843333932282	2
0	629	0.875445285936	3
0	632	0.883949285936	2
0	637	0.886587027899	3
0	641	0.895091027899	2
0	646	0.902717971165	3
0	662	0.911221971165	2
0	662	0.911221971165	3
0	678	0.919725971165	2
0	678	0.919725971165	3
0	691	0.928229971165	2
0	691	0.928229971165	3
0	696	0.936733971165	2
0	696	0.936733971165	3
0	705	0.945237971165	2
0	705	0.945237971165	3
0	714	0.953741971165	2
0	714	0.953741971165	3
0	723	0.962245971165	2
0	723	0.962245971165	3
0	736	0.970749971165	2
0	736	0.970749971165	3
0	745	0.979253971165	2
0	745	0.979253971165	3
0	750	0.987757971165	2
0	750	0.987757971165	3
0	755	0.996261971165	2
0	755	0.996261971165	3
0	760	1.004765971165	2
0	760	1.004765971165	3
0	773	1.013269971165	2
0	773	1.013269971165	3
0	778	1.021773971165	2
0	778	1.021773971165	3
0	791	1.030277971165	2
0	791	1.030277971165	3
0	796	1.038781971165	2
0	796	1.038781971165	3
0	809	1.047285971165	2
0	809	1.047285971165	3
0	818	1.055789971165	2
0	818	1.055789971165	3
0	831	1.064293971165	2
0	831	1.064293971165	3
0	836	1.072797971165	2
0	836	1.072797971165	3
0	849	1.081301971165	2
0	849	1.081301971165	3
0	854	1.089805971165	2
0	854	1.089805971165	3
0	867	1.098309971165	2
0	867	1.098309971165	3
0	872	1.106813971165	2
0	872	1.106813971165	3
0	881	1.115317971165	2
0	881	1.115317971165	3
0	886	1.123821971165	2
0	886	1.123821971165	3
0	891	1.132325971165	2
0	891	1.132325971165	3
0	896	1.140829971165	2
0	896	1.140829971165	3
0	901	1.149333971165	2
0	907	1.152161667644	3
0	915	1.160665667644	2
0	915	1.160665667644	3
0	923	1.169169667644	2
0	923	1.169169667644	3
0	932	1.177673667644	2
0	932	1.177673667644	3
0	937	1.186177667644	2
0	942	1.186844375116	3
0	950	1.195348375116	2
0	950	1.195348375116	3
0	955	1.203852375116	2
0	962	1.226500794914	3
0	969	1.235004794914	2
0	969	1.235004794914	3
0	973	1.243508794914	2
0	980	1.256093801801	3
0	983	1.264597801801	2
0	988	1.270520664608	3
0	996	1.279024664608	2
0	996	1.279024664608	3
0	1000	1.287528664608	2
0	1006	1.294927972662	3
0	1014	1.303431972662	2
0	1014	1.303431972662	3
0	1018	1.311935972662	2
0	1025	1.326542190388	3
0	1028	1.335046190388	2
0	1033	1.336988620304	3
0	1037	1.345492620304	2
0	1043	1.362606585704	3
0	1046	1.371110585704	2
0	1051	1.376759180908	3
0	1055	1.385263180908	2
0	1060	1.392262092134	3
0	1068	1.400766092134	2
0	1068	1.400766092134	3
0	1072	1.409270092134	2
0	1079	1.438117305957	3
0	1082	1.446621305957	2
0	1087	1.450510870085	3
0	1095	1.459014870085	2
0	1095	1.459014870085	3
0	1099	1.467518870085	2
0	1104	1.468316456532	3
0	1116	1.476820456532	2
0	1116	1.476820456532	3
0	1121	1.485324456532	2
0	1121	1.485324456532	3
0	1134	1.493828456532	2
0	1134	1.493828456532	3
0	1143	1.502332456532	2
0	1143	1.502332456532	3
0	1156	1.510836456532	2
0	1156	1.510836456532	3
0	1165	1.519340456532	2
0	1165	1.519340456532	3
0	1174	1.527844456532	2
0	1174	1.527844456532	3
0	1183	1.536348456532	2
0	1183	1.536348456532	3
0	1188	1.544852456532	2
0	1188	1.544852456532	3
0	1197	1.553356456532	2
0	1197	1.553356456532	3
0	1206	1.561860456532	2
0	1206	1.561860456532	3
0	1211	1.570364456532	2
0	1211	1.570364456532	3
0	1224	1.578868456532	2
0	1224	1.578868456532	3
0	1229	1.587372456532	2
0	1229	1.587372456532	3
0	1234	1.595876456532	2
0	1240	1.604662398509	3
0	1248	1.613166398509	2
0	1248	1.613166398509	3
0	1256	1.621670398509	2
0	1256	1.621670398509	3
0	1261	1.630174398509	2
0	1268	1.64372898762	3
0	1271	1.65223298762	2
0	1277	1.663419758555	3
0	1280	1.671923758555	2
0	1285	1.678023992499	3
0	1293	1.686527992499	2
0	1293	1.686527992499	3
0	1297	1.695031992499	2
0	1304	1.709522729784	3
0	1307	1.718026729784	2
0	1312	1.724554020083	3
0	1316	1.733058020083	2
0	1322	1.805738706322	3
0	1329	1.814242706322	2
0	1329	1.814242706322	3
0	1333	1.822746706322	2
0	1339	1.831992053168	3
0	1347	1.840496053168	2
0	1347	1.840496053168	3
0	1359	1.849000053168	2
0	1359	1.849000053168	3
0	1364	1.857504053168	2
0	1364	1.857504053168	3
0	1369	1.866008053168	2
0	1375	1.869784908311	3
0	1379	1.878288908311	2
0	1385	1.889545537527	3
0	1388	1.898049537527	2
0	1393	1.899648109068	3
0	1405	1.908152109068	2
0	1405	1.908152109068	3
0	1409	1.916656109068	2
0	1409	1.916656109068	3
0	1418	1.925160109068	2
0	1418	1.925160109068	3
0	1427	1.933664109068	2
0	1427	1.933664109068	3
0	1432	1.942168109068	2
0	1438	1.943743516144	3
0	1442	1.952247516144	2
0	1448	1.967896788978	3
0	1451	1.976400788978	2
0	1457	2.012416316081	3
0	1460	2.020920316081	2
0	1466	2.035655242931	3
0	1477	2.044159242931	2
0	1477	2.044159242931	3
0	1481	2.052663242931	2
0	1481	2.052663242931	3
0	1494	2.061167242931	2
0	1494	2.061167242931	3
0	1507	2.069671242931	2
0	1507	2.069671242931	3
0	1520	2.078175242931	2
0	1520	2.078175242931	3
0	1525	2.086679242931	2
0	1525	2.086679242931	3
0	1538	2.095183242931	2
0	1538	2.095183242931	3
0	1547	2.103687242931	2
0	1547	2.103687242931	3
0	1552	2.112191242931	2
0	1552	2.112191242931	3
0	1557	2.120695242931	2
0	1557	2.120695242931	3
0	1562	2.129199242931	2
0	1562	2.129199242931	3
0	1571	2.137703242931	2
0	1571	2.137703242931	3
0	1584	2.146207242931	2
0	1584	2.146207242931	3
0	1593	2.154711242931	2
0	1593	2.154711242931	3
0	1602	2.163215242931	2
0	1602	2.163215242931	3
0	1611	2.171719242931	2
0	1611	2.171719242931	3
0	1620	2.180223242931	2
0	1620	2.180223242931	3
0	1625	2.188727242931	2
0	1625	2.188727242931	3
0	1630	2.197231242931	2
0	1636	2.205260755149	3
0	1640	2.213764755149	2
0	1645	2.21668271164	3
0	1649	2.22518671164	2
0	1654	2.225887667495	3
0	1657	2.234391667495	2
0	1663	2.236584210418	3
0	1667	2.245088210418	2
0	1672	2.252301634874	3
0	1680	2.260805634874	2
0	1680	2.260805634874	3
0	1696	2.269309634874	2
0	1696	2.269309634874	3
0	1701	2.277813634874	2
0	1701	2.277813634874	3
0	1706	2.286317634874	2
0	1706	2.286317634874	3
0	1711	2.294821634874	2
0	1717	2.302850240863	3
0	1721	2.311354240863	2
0	1726	2.318994410062	3
0	1734	2.327498410062	2
0	1734	2.327498410062	3
0	1750	2.336002410062	2
0	1750	2.336002410062	3
0	1759	2.344506410062	2
0	1759	2.344506410062	3
0	1768	2.353010410062	2
0	1768	2.353010410062	3
0	1777	2.361514410062	2
0	1777	2.361514410062	3
0	1798	2.370018410062	2
0	1798	2.370018410062	3
0	1803	2.378522410062	2
0	1803	2.378522410062	3
0	1812	2.387026410062	2
0	1812	2.387026410062	3
0	1821	2.395530410062	2
0	1821	2.395530410062	3
0	1830	2.404034410062	2
0	1830	2.404034410062	3
0	1835	2.412538410062	2
0	1835	2.412538410062	3
0	1840	2.421042410062	2
0	1840	2.421042410062	3
0	1849	2.429546410062	2
0	1849	2.429546410062	3
0	1854	2.438050410062	2
0	1854	2.438050410062	3
0	1859	2.446554410062	2
0	1859	2.446554410062	3
0	1864	2.455058410062	2
0	1871	2.482298732409	3
0	1878	2.490802732409	2
0	1878	2.490802732409	3
0	1886	2.499306732409	2
0	1886	2.499306732409	3
0	1899	2.507810732409	2
0	1899	2.507810732409	3
0	1904	2.516314732409	2
0	1904	2.516314732409	3
0	1917	2.524818732409	2
0	1917	2.524818732409	3
0	1926	2.533322732409	2
0	1926	2.533322732409	3
0	1935	2.541826732409	2
0	1935	2.541826732409	3
0	1940	2.550330732409	2
0	1940	2.550330732409	3
0	1945	2.558834732409	2
0	1951	2.561669400952	3
0	1955	2.570173400952	2
0	1960	2.573567452467	3
0	1964	2.582071452467	2
0	1970	2.598297307358	3
0	1977	2.606801307358	2
0	1977	2.606801307358	3
0	1981	2.615305307358	2
0	1987	2.621328836518	3
0	1995	2.629832836518	2
0	1995	2.629832836518	3
0	1999	2.638336836518	2
0	2006	2.660431225778	3
0	2009	2.668935225778	2
0	2014	2.674388585179	3
0	2022	2.682892585179	2
0	2022	2.682892585179	3
0	2026	2.691396585179	2
0	2033	2.712634970432	3
0	2036	2.721138970432	2
0	2041	2.728385066348	3
0	2053	2.736889066348	2
0	2053	2.736889066348	3
0	2065	2.745393066348	2
0	2065	2.745393066348	3
0	2078	2.753897066348	2
0	2078	2.753897066348	3
0	2087	2.762401066348	2
0	2087	2.762401066348	3
0	2100	2.770905066348	2
0	2100	2.770905066348	3
0	2105	2.779409066348	2
0	2105	2.779409066348	3
0	2114	2.787913066348	2
0	2114	2.787913066348	3
0	2119	2.796417066348	2
0	2119	2.796417066348	3
0	2128	2.804921066348	2
0	2128	2.804921066348	3
0	2137	2.813425066348	2
0	2137	2.813425066348	3
0	2150	2.821929066348	2
0	2150	2.821929066348	3
0	2155	2.830433066348	2
0	2155	2.830433066348	3
0	2168	2.838937066348	2
0	2168	2.838937066348	3
0	2173	2.847441066348	2
0	2173	2.847441066348	3
0	2190	2.855945066348	2
0	2190	2.855945066348	3
0	2199	2.864449066348	2
0	2199	2.864449066348	3
0	2208	2.872953066348	2
0	2208	2.872953066348	3
0	2213	2.881457066348	2
0	2213	2.881457066348	3
0	2218	2.889961066348	2
0	2218	2.889961066348	3
0	2223	2.898465066348	2
0	2223	2.898465066348	3
0	2232	2.906969066348	2
0	2232	2.906969066348	3
0	2237	2.915473066348	2
0	2237	2.915473066348	3
0	2246	2.923977066348	2
0	2246	2.923977066348	3
0	2251	2.932481066348	2
0	2256	2.933378235419	3
0	2260	2.941882235419	2
0	2267	2.961464138947	3
0	2274	2.969968138947	2
0	2274	2.969968138947	3
0	2282	2.978472138947	2
0	2282	2.978472138947	3
0	2291	2.986976138947	2
0	2291	2.986976138947	3
0	2296	2.995480138947	2
0	2303	3.021910680853	3
0	2314	3.030414680853	2
0	2314	3.030414680853	3
0	2326	3.038918680853	2
0	2326	3.038918680853	3
0	2331	3.047422680853	2
0	2331	3.047422680853	3
0	2336	3.055926680853	2
0	2336	3.055926680853	3
0	2345	3.064430680853	2
0	2345	3.064430680853	3
0	2350	3.072934680853	2
0	2356	3.075961909561	3
0	2360	3.084465909561	2
0	2365	3.094415854135	3
0	2373	3.102919854135	2
0	2373	3.102919854135	3
0	2385	3.111423854135	2
0	2385	3.111423854135	3
0	2394	3.119927854135	2
0	2394	3.119927854135	3
0	2399	3.128431854135	2
0	2399	3.128431854135	3
0	2404	3.136935854135	2
0	2411	3.163280421768	3
0	2414	3.171784421768	2
0	2420	3.188379100639	3
0	2427	3.196883100639	2
0	2427	3.196883100639	3
0	2431	3.205387100639	2
0	2438	3.232438910766	3
0	2445	3.240942910766	2
0	2445	3.240942910766	3
0	2449	3.249446910766	2
0	2456	3.271388244226	3
0	2459	3.279892244226	2
0	2465	3.305427926547	3
0	2468	3.313931926547	2
0	2474	3.324693431704	3
0	2477	3.333197431704	2
0	2482	3.336638995424	3
0	2486	3.345142995424	2
0	2492	3.361524132981	3
0	2499	3.370028132981	2
0	2499	3.370028132981	3
0	2503	3.378532132981	2
0	2509	3.388366393003	3
0	2513	3.396870393003	2
0	2518	3.399910536122	3
0	2534	3.408414536122	2
0	2534	3.408414536122	3
0	2538	3.416918536122	2
0	2538	3.416918536122	3
0	2543	3.425422536122	2
0	2543	3.425422536122	3
0	2548	3.433926536122	2
0	2555	3.455208273796	3
0	2562	3.463712273796	2
0	2562	3.463712273796	3
0	2570	3.472216273796	2
0	2570	3.472216273796	3
0	2575	3.480720273796	2
0	2581	3.483515408701	3
0	2593	3.492019408701	2
0	2593	3.492019408701	3
0	2597	3.500523408701	2
0	2597	3.500523408701	3
0	2602	3.509027408701	2
0	2608	3.511519205519	3
0	2616	3.520023205519	2
0	2616	3.520023205519	3
0	2632	3.528527205519	2
0	2632	3.528527205519	3
0	2637	3.537031205519	2
0	2637	3.537031205519	3
0	2642	3.545535205519	2
0	2642	3.545535205519	3
0	2651	3.554039205519	2
0	2651	3.554039205519	3
0	2656	3.562543205519	2
0	2663	3.594011881851	3
0	2666	3.602515881851	2
0	2672	3.632891437454	3
0	2675	3.641395437454	2
0	2681	3.661336088421	3
0	2684	3.669840088421	2
0	2689	3.679185245473	3
0	2701	3.687689245473	2
0	2701	3.687689245473	3
0	2713	3.696193245473	2
0	2713	3.696193245473	3
0	2726	3.704697245473	2
0	2726	3.704697245473	3
0	2739	3.713201245473	2
0	2739	3.713201245473	3
0	2744	3.721705245473	2
0	2744	3.721705245473	3
0	2753	3.730209245473	2
0	2753	3.730209245473	3
0	2770	3.738713245473	2
0	2770	3.738713245473	3
0	2775	3.747217245473	2
0	2775	3.747217245473	3
0	2788	3.755721245473	2
0	2788	3.755721245473	3
0	2797	3.764225245473	2
0	2797	3.764225245473	3
0	2806	3.772729245473	2
0	2806	3.772729245473	3
0	2811	3.781233245473	2
0	2811	3.781233245473	3
0	2816	3.789737245473	2
0	2816	3.789737245473	3
0	2825	3.798241245473	2
0	2825	3.798241245473	3
0	2834	3.806745245473	2
0	2834	3.806745245473	3
0	2851	3.815249245473	2
0	2851	3.815249245473	3
0	2864	3.823753245473	2
0	2864	3.823753245473	3
0	2873	3.832257245473	2
0	2873	3.832257245473	3
0	2878	3.840761245473	2
0	2878	3.840761245473	3
0	2887	3.849265245473	2
0	2887	3.849265245473	3
0	2896	3.857769245473	2
0	2896	3.857769245473	3
0	2909	3.866273245473	2
0	2909	3.866273245473	3
0	2918	3.874777245473	2
0	2918	3.874777245473	3
0	2923	3.883281245473	2
0	2923	3.883281245473	3
0	2936	3.891785245473	2
0	2936	3.891785245473	3
0	2941	3.900289245473	2
0	2941	3.900289245473	3
0	2950	3.908793245473	2
0	2950	3.908793245473	3
0	2955	3.917297245473	2
0	2955	3.917297245473	3
0	2964	3.925801245473	2
0	2964	3.925801245473	3
0	2969	3.934305245473	2
0	2969	3.934305245473	3
0	2982	3.942809245473	2
0	2982	3.942809245473	3
0	2991	3.951313245473	2
0	2991	3.951313245473	3
0	3000	3.959817245473	2
0	3000	3.959817245473	3
0	3013	3.968321245473	2
0	3013	3.968321245473	3
0	3022	3.976825245473	2
0	3022	3.976825245473	3
0	3035	3.985329245473	2
0	3035	3.985329245473	3
0	3040	3.993833245473	2
0	3040	3.993833245473	3
0	3053	4.002337245473	2
0	3053	4.002337245473	3
0	3062	4.010841245473	2
0	3062	4.010841245473	3
0	3071	4.019345245473	2
0	3071	4.019345245473	3
0	3080	4.027849245473	2
0	3080	4.027849245473	3
0	3085	4.036353245473	2
0	3085	4.036353245473	3
0	3090	4.044857245473	2
0	3090	4.044857245473	3
0	3095	4.053361245473	2
0	3095	4.053361245473	3
0	3104	4.061865245473	2
0	3104	4.061865245473	3
0	3109	4.070369245473	2
0	3109	4.070369245473	3
0	3122	4.078873245473	2
0	3122	4.078873245473	3
0	3131	4.087377245473	2
0	3131	4.087377245473	3
0	3140	4.095881245473	2
0	3140	4.095881245473	3
0	3149	4.104385245473	2
0	3149	4.104385245473	3
0	3158	4.112889245473	2
0	3158	4.112889245473	3
0	3171	4.121393245473	2
0	3171	4.121393245473	3
0	3180	4.129897245473	2
0	3180	4.129897245473	3
0	3185	4.138401245473	2
0	3185	4.138401245473	3
0	3190	4.146905245473	2
0	3190	4.146905245473	3
0	3195	4.155409245473	2
0	3195	4.155409245473	3
0	3208	4.163913245473	2
0	3208	4.163913245473	3
0	3213	4.172417245473	2
0	3213	4.172417245473	3
0	3218	4.180921245473	2
0	3218	4.180921245473	3
0	3223	4.189425245473	2
0	3228	4.190880830901	3
0	3232	4.199384830901	2
0	3238	4.200298875136	3
0	3245	4.208802875136	2
0	3245	4.208802875136	3
0	3250	4.217306875136	2
0	3257	4.233273729561	3
0	3264	4.241777729561	2
0	3264	4.241777729561	3
0	3268	4.250281729561	2
0	3274	4.256092523779	3
0	3282	4.264596523779	2
0	3282	4.264596523779	3
0	3286	4.273100523779	2
0	3293	4.290329389311	3
0	3296	4.298833389311	2
0	3301	4.30438455365	3
0	3305	4.31288855365	2
0	3310	4.318817119056	3
0	3318	4.327321119056	2
0	3318	4.327321119056	3
0	3322	4.335825119056	2
0	3328	4.34054749041	3
0	3332	4.34905149041	2
0	3337	4.352676720367	3
0	3349	4.361180720367	2
0	3349	4.361180720367	3
0	3353	4.369684720367	2
0	3353	4.369684720367	3
0	3362	4.378188720367	2
0	3362	4.378188720367	3
0	3367	4.386692720367	2
0	3374	4.415547956405	3
0	3381	4.424051956405	2
0	3381	4.424051956405	3
0	3385	4.432555956405	2
0	3390	4.433628918575	3
0	3394	4.442132918575	2
0	3401	4.457028641517	3
0	3408	4.465532641517	2
0	3408	4.465532641517	3
0	3412	4.474036641517	2
0	3419	4.500768643121	3
0	3422	4.509272643121	2
0	3427	4.511057864352	3
0	3431	4.519561864352	2
0	3437	4.531686696093	3
0	3440	4.540190696093	2
0	3446	4.560428853566	3
0	3449	4.568932853566	2
0	3455	4.580711673023	3
0	3462	4.589215673023	2
0	3462	4.589215673023	3
0	3470	4.597719673023	2
0	3470	4.597719673023	3
0	3483	4.606223673023	2
0	3483	4.606223673023	3
0	3496	4.614727673023	2
0	3496	4.614727673023	3
0	3501	4.623231673023	2
0	3501	4.623231673023	3
0	3506	4.631735673023	2
0	3506	4.631735673023	3
0	3519	4.640239673023	2
0	3519	4.640239673023	3
0	3524	4.648743673023	2
0	3524	4.648743673023	3
0	3529	4.657247673023	2
0	3536	4.673199466141	3
0	3543	4.681703466141	2
0	3543	4.681703466141	3
0	3559	4.690207466141	2
0	3559	4.690207466141	3
0	3568	4.698711466141	2
0	3568	4.698711466141	3
0	3573	4.707215466141	2
0	3573	4.707215466141	3
0	3578	4.715719466141	2
0	3578	4.715719466141	3
0	3583	4.724223466141	2
0	3588	4.72436341736	3
0	3596	4.73286741736	2
0	3596	4.73286741736	3
0	3601	4.74137141736	2
0	3608	4.760493645572	3
0	3611	4.768997645572	2
0	3617	4.784929175819	3
0	3624	4.793433175819	2
0	3624	4.793433175819	3
0	3636	4.801937175819	2
0	3636	4.801937175819	3
0	3641	4.810441175819	2
0	3641	4.810441175819	3
0	3662	4.818945175819	2
0	3662	4.818945175819	3
0	3679	4.827449175819	2
0	3679	4.827449175819	3
0	3700	4.835953175819	2
0	3700	4.835953175819	3
0	3705	4.844457175819	2
0	3705	4.844457175819	3
0	3714	4.852961175819	2
0	3714	4.852961175819	3
0	3719	4.861465175819	2
0	3719	4.861465175819	3
0	3724	4.869969175819	2
0	3724	4.869969175819	3
0	3729	4.878473175819	2
0	3729	4.878473175819	3
0	3734	4.886977175819	2
0	3734	4.886977175819	3
0	3743	4.895481175819	2
0	3743	4.895481175819	3
0	3748	4.903985175819	2
0	3748	4.903985175819	3
0	3753	4.912489175819	2
0	3753	4.912489175819	3
0	3758	4.920993175819	2
0	3758	4.920993175819	3
0	3763	4.929497175819	2
0	3770	4.944167199513	3
0	3781	4.952671199513	2
0	3781	4.952671199513	3
0	3785	4.961175199513	2
0	3785	4.961175199513	3
0	3794	4.969679199513	2
0	3794	4.969679199513	3
0	3803	4.978183199513	2
0	3803	4.978183199513	3
0	3808	4.986687199513	2
0	3815	5.027493908655	3
0	3822	5.035997908655	2
0	3822	5.035997908655	3
0	3826	5.044501908655	2
0	3832	5.046651584987	3
0	3844	5.055155584987	2
0	3844	5.055155584987	3
0	3848	5.063659584987	2
0	3848	5.063659584987	3
0	3861	5.072163584987	2
0	3861	5.072163584987	3
0	3866	5.080667584987	2
0	3866	5.080667584987	3
0	3875	5.089171584987	2
0	3875	5.089171584987	3
0	3884	5.097675584987	2
0	3884	5.097675584987	3
0	3893	5.106179584987	2
0	3893	5.106179584987	3
0	3906	5.114683584987	2
0	3906	5.114683584987	3
0	3911	5.123187584987	2
0	3911	5.123187584987	3
0	3920	5.131691584987	2
0	3920	5.131691584987	3
0	3933	5.140195584987	2
0	3933	5.140195584987	3
0	3938	5.148699584987	2
0	3938	5.148699584987	3
0	3943	5.157203584987	2
0	3949	5.160437370677	3
0	3953	5.168941370677	2
0	3959	5.191515284423	3
0	3970	5.200019284423	2
0	3970	5.200019284423	3
0	3978	5.208523284423	2
0	3978	5.208523284423	3
0	3983	5.217027284423	2
0	3983	5.217027284423	3
0	3992	5.225531284423	2
0	3992	5.225531284423	3
0	3997	5.234035284423	2
0	4004	5.271442763227	3
0	4007	5.279946763227	2
0	4013	5.313117031698	3
0	4016	5.321621031698	2
0	4022	5.341357048915	3
0	4029	5.349861048915	2
0	4029	5.349861048915	3
0	4033	5.358365048915	2
0	4040	5.403534900516	3
0	4051	5.412038900516	2
0	4051	5.412038900516	3
0	4055	5.420542900516	2
0	4055	5.420542900516	3
0	4060	5.429046900516	2
0	4067	5.444500763421	3
0	4074	5.453004763421	2
0	4074	5.453004763421	3
0	4078	5.461508763421	2
0	4083	5.461735790769	3
0	4091	5.470239790769	2
0	4091	5.470239790769	3
0	4100	5.478743790769	2
0	4100	5.478743790769	3
0	4105	5.487247790769	2
0	4112	5.503817316906	3
0	4119	5.512321316906	2
0	4119	5.512321316906	3
0	4131	5.520825316906	2
0	4131	5.520825316906	3
0	4136	5.529329316906	2
0	4136	5.529329316906	3
0	4145	5.537833316906	2
0	4145	5.537833316906	3
0	4158	5.546337316906	2
0	4158	5.546337316906	3
0	4171	5.554841316906	2
0	4171	5.554841316906	3
0	4176	5.563345316906	2
0	4176	5.563345316906	3
0	4181	5.571849316906	2
0	4181	5.571849316906	3
0	4194	5.580353316906	2
0	4194	5.580353316906	3
0	4203	5.588857316906	2
0	4203	5.588857316906	3
0	4208	5.597361316906	2
0	4208	5.597361316906	3
0	4213	5.605865316906	2
0	4220	5.620445508973	3
0	4223	5.628949508973	2
0	4228	5.632506896756	3
0	4232	5.641010896756	2
0	4238	5.656741910795	3
0	4241	5.665245910795	2
0	4247	5.690544851555	3
0	4250	5.699048851555	2
0	4255	5.707217153638	3
0	4259	5.715721153638	2
0	4264	5.721647841775	3
0	4268	5.730151841775	2
0	4274	5.762939170346	3
0	4277	5.771443170346	2
0	4283	5.825160723422	3
0	4294	5.833664723422	2
0	4294	5.833664723422	3
0	4306	5.842168723422	2
0	4306	5.842168723422	3
0	4319	5.850672723422	2
0	4319	5.850672723422	3
0	4328	5.859176723422	2
0	4328	5.859176723422	3
0	4337	5.867680723422	2
0	4337	5.867680723422	3
0	4342	5.876184723422	2
0	4342	5.876184723422	3
0	4347	5.884688723422	2
0	4347	5.884688723422	3
0	4356	5.893192723422	2
0	4356	5.893192723422	3
0	4361	5.901696723422	2
0	4361	5.901696723422	3
0	4366	5.910200723422	2
0	4373	5.932798914007	3
0	4376	5.941302914007	2
0	4381	5.942298223142	3
0	4388	5.950802223142	2
0	4388	5.950802223142	3
0	4397	5.959306223142	2
0	4397	5.959306223142	3
0	4402	5.967810223142	2
0	4409	5.984167464234	3
0	4416	5.992671464234	2
0	4416	5.992671464234	3
0	4424	6.001175464234	2
0	4424	6.001175464234	3
0	4433	6.009679464234	2
0	4433	6.009679464234	3
0	4446	6.018183464234	2
0	4446	6.018183464234	3
0	4455	6.026687464234	2
0	4455	6.026687464234	3
0	4468	6.035191464234	2
0	4468	6.035191464234	3
0	4477	6.043695464234	2
0	4477	6.043695464234	3
0	4486	6.052199464234	2
0	4486	6.052199464234	3
0	4491	6.060703464234	2
0	4491	6.060703464234	3
0	4500	6.069207464234	2
0	4500	6.069207464234	3
0	4509	6.077711464234	2
0	4509	6.077711464234	3
0	4514	6.086215464234	2
0	4514	6.086215464234	3
0	4519	6.094719464234	2
0	4525	6.100694534439	3
0	4529	6.109198534439	2
0	4535	6.124488285402	3
0	4546	6.132992285402	2
0	4546	6.132992285402	3
0	4558	6.141496285402	2
0	4558	6.141496285402	3
0	4567	6.150000285402	2
0	4567	6.150000285402	3
0	4576	6.158504285402	2
0	4576	6.158504285402	3
0	4581	6.167008285402	2
0	4581	6.167008285402	3
0	4590	6.175512285402	2
0	4590	6.175512285402	3
0	4599	6.184016285402	2
0	4599	6.184016285402	3
0	4604	6.192520285402	2
0	4604	6.192520285402	3
0	4613	6.201024285402	2
0	4613	6.201024285402	3
0	4626	6.209528285402	2
0	4626	6.209528285402	3
0	4631	6.218032285402	2
0	4631	6.218032285402	3
0	4640	6.226536285402	2
0	4640	6.226536285402	3
0	4645	6.235040285402	2
0	4652	6.24524912426	3
0	4655	6.25375312426	2
0	4660	6.254663804623	3
0	4671	6.263167804623	2
0	4671	6.263167804623	3
0	4676	6.271671804623	2
0	4676	6.271671804623	3
0	4693	6.280175804623	2
0	4693	6.280175804623	3
0	4702	6.288679804623	2
0	4702	6.288679804623	3
0	4707	6.297183804623	2
0	4707	6.297183804623	3
0	4712	6.305687804623	2
0	4712	6.305687804623	3
0	4717	6.314191804623	2
0	4723	6.319282052842	3
0	4739	6.327786052842	2
0	4739	6.327786052842	3
0	4747	6.336290052842	2
0	4747	6.336290052842	3
0	4756	6.344794052842	2
0	4756	6.344794052842	3
0	4773	6.353298052842	2
0	4773	6.353298052842	3
0	4778	6.361802052842	2
0	4778	6.361802052842	3
0	4787	6.370306052842	2
0	4787	6.370306052842	3
0	4796	6.378810052842	2
0	4796	6.378810052842	3
0	4801	6.387314052842	2
0	4801	6.387314052842	3
0	4810	6.395818052842	2
0	4810	6.395818052842	3
0	4815	6.404322052842	2
0	4815	6.404322052842	3
0	4820	6.412826052842	2
0	4820	6.412826052842	3
0	4825	6.421330052842	2
0	4831	6.425536554306	3
0	4839	6.434040554306	2
0	4839	6.434040554306	3
0	4847	6.442544554306	2
0	4847	6.442544554306	3
0	4856	6.451048554306	2
0	4856	6.451048554306	3
0	4861	6.459552554306	2
0	4866	6.45974077649	3
0	4870	6.46824477649	2
0	4877	6.499228562453	3
0	4884	6.507732562453	2
0	4884	6.507732562453	3
0	4892	6.516236562453	2
0	4892	6.516236562453	3
0	4897	6.524740562453	2
0	4903	6.53390392803	3
0	4907	6.54240792803	2
0	4912	6.54245940578	3
0	4919	6.55096340578	2
0	4919	6.55096340578	3
0	4924	6.55946740578	2
0	4930	6.566112238789	3
0	4942	6.574616238789	2
0	4942	6.574616238789	3
0	4946	6.583120238789	2
0	4946	6.583120238789	3
0	4955	6.591624238789	2
0	4955	6.591624238789	3
0	4968	6.600128238789	2
0	4968	6.600128238789	3
0	4981	6.608632238789	2
0	4981	6.608632238789	3
0	4986	6.617136238789	2
0	4986	6.617136238789	3
0	4995	6.625640238789	2
0	4995	6.625640238789	3
0	5000	6.634144238789	2
0	5000	6.634144238789	3
0	5005	6.642648238789	2
0	5011	6.645814556979	3
0	5015	6.654318556979	2
0	5020	6.65738855412	3
0	5028	6.66589255412	2
0	5028	6.66589255412	3
0	5032	6.67439655412	2
0	5039	6.706405042781	3
0	5042	6.714909042781	2
0	5048	6.731053672587	3
0	5055	6.739557672587	2
0	5055	6.739557672587	3
0	5059	6.748061672587	2
0	5066	6.77010312799	3
0	5069	6.77860712799	2
0	5074	6.779457548336	3
0	5077	6.787961548336	2
0	5084	6.81027273988	3
0	5087	6.81877673988	2
0	5093	6.831528979712	3
0	5096	6.840032979712	2
0	5102	6.872941101264	3
0	5105	6.881445101264	2
0	5111	6.9032173108	3
0	5122	6.9117213108	2
0	5122	6.9117213108	3
0	5130	6.9202253108	2
0	5130	6.9202253108	3
0	5135	6.9287293108	2
0	5135	6.9287293108	3
0	5140	6.9372333108	2
0	5147	6.948351770859	3
0	5158	6.956855770859	2
0	5158	6.956855770859	3
0	5162	6.965359770859	2
0	5162	6.965359770859	3
0	5167	6.973863770859	2
0	5173	6.980822083898	3
0	5181	6.989326083898	2
0	5181	6.989326083898	3
0	5185	6.997830083898	2
0	5192	7.016533101444	3
0	5199	7.025037101444	2
0	5199	7.025037101444	3
0	5207	7.033541101444	2
0	5207	7.033541101444	3
0	5220	7.042045101444	2
0	5220	7.042045101444	3
0	5225	7.050549101444	2
0	5225	7.050549101444	3
0	5246	7.059053101444	2
0	5246	7.059053101444	3
0	5255	7.067557101444	2
0	5255	7.067557101444	3
0	5260	7.076061101444	2
0	5260	7.076061101444	3
0	5265	7.084565101444	2
0	5265	7.084565101444	3
0	5274	7.093069101444	2
0	5274	7.093069101444	3
0	5279	7.101573101444	2
0	5279	7.101573101444	3
0	5288	7.110077101444	2
0	5288	7.110077101444	3
0	5293	7.118581101444	2
0	5300	7.13139004756	3
0	5303	7.13989404756	2
0	5308	7.144788270443	3
0	5312	7.153292270443	2
0	5317	7.153821506267	3
0	5324	7.162325506267	2
0	5324	7.162325506267	3
0	5329	7.170829506267	2
0	5336	7.232528993545	3
0	5343	7.241032993545	2
0	5343	7.241032993545	3
0	5351	7.249536993545	2
0	5351	7.249536993545	3
0	5360	7.258040993545	2
0	5360	7.258040993545	3
0	5365	7.266544993545	2
0	5372	7.29792504535	3
0	5383	7.30642904535	2
0	5383	7.30642904535	3
0	5387	7.31493304535	2
0	5387	7.31493304535	3
0	5400	7.32343704535	2
0	5400	7.32343704535	3
0	5409	7.33194104535	2
0	5409	7.33194104535	3
0	5418	7.34044504535	2
0	5418	7.34044504535	3
0	5431	7.34894904535	2
0	5431	7.34894904535	3
0	5440	7.35745304535	2
0	5440	7.35745304535	3
0	5449	7.36595704535	2
0	5449	7.36595704535	3
0	5462	7.37446104535	2
0	5462	7.37446104535	3
0	5467	7.38296504535	2
0	5467	7.38296504535	3
0	5472	7.39146904535	2
0	5472	7.39146904535	3
0	5477	7.39997304535	2
0	5477	7.39997304535	3
0	5482	7.40847704535	2
0	5488	7.414464726996	3
0	5504	7.422968726996	2
0	5504	7.422968726996	3
0	5508	7.431472726996	2
0	5508	7.431472726996	3
0	5517	7.439976726996	2
0	5517	7.439976726996	3
0	5526	7.448480726996	2
0	5526	7.448480726996	3
0	5535	7.456984726996	2
0	5535	7.456984726996	3
0	5540	7.465488726996	2
0	5540	7.465488726996	3
0	5545	7.473992726996	2
0	5552	7.538975951237	3
0	5559	7.547479951237	2
0	5559	7.547479951237	3
0	5563	7.555983951237	2
0	5569	7.559516370432	3
0	5573	7.568020370432	2
0	5578	7.571695877932	3
0	5582	7.580199877932	2
0	5588	7.591819094728	3
0	5591	7.600323094728	2
0	5597	7.636688876464	3
0	5600	7.645192876464	2
0	5606	7.66315368611	3
0	5609	7.67165768611	2
0	5614	7.680509376976	3
0	5618	7.689013376976	2
0	5623	7.69488719363	3
0	5639	7.70339119363	2
0	5639	7.70339119363	3
0	5647	7.71189519363	2
0	5647	7.71189519363	3
0	5656	7.72039919363	2
0	5656	7.72039919363	3
0	5665	7.72890319363	2
0	5665	7.72890319363	3
0	5670	7.73740719363	2
0	5670	7.73740719363	3
0	5679	7.74591119363	2
0	5679	7.74591119363	3
0	5684	7.75441519363	2
0	5684	7.75441519363	3
0	5689	7.76291919363	2
0	5696	7.777512799306	3
0	5707	7.786016799306	2
0	5707	7.786016799306	3
0	5715	7.794520799306	2
0	5715	7.794520799306	3
0	5720	7.803024799306	2
0	5720	7.803024799306	3
0	5729	7.811528799306	2
0	5729	7.811528799306	3
0	5734	7.820032799306	2
0	5741	7.830093665652	3
0	5744	7.838597665652	2
0	5750	7.863048688095	3
0	5753	7.871552688095	2
0	5759	7.912247899607	3
0	5766	7.920751899607	2
0	5766	7.920751899607	3
0	5778	7.929255899607	2
0	5778	7.929255899607	3
0	5783	7.937759899607	2
0	5783	7.937759899607	3
0	5792	7.946263899607	2
0	5792	7.946263899607	3
0	5801	7.954767899607	2
0	5801	7.954767899607	3
0	5806	7.963271899607	2
0	5813	7.976499221628	3
0	5820	7.985003221628	2
0	5820	7.985003221628	3
0	5828	7.993507221628	2
0	5828	7.993507221628	3
0	5845	8.002011221628	2
0	5845	8.002011221628	3
0	5850	8.010515221628	2
0	5850	8.010515221628	3
0	5855	8.019019221628	2
0	5855	8.019019221628	3
0	5868	8.027523221628	2
0	5868	8.027523221628	3
0	5881	8.036027221628	2
0	5881	8.036027221628	3
0	5890	8.044531221628	2
0	5890	8.044531221628	3
0	5895	8.053035221628	2
0	5895	8.053035221628	3
0	5900	8.061539221628	2
0	5900	8.061539221628	3
0	5905	8.070043221628	2
0	5912	8.089614223491	3
0	5919	8.098118223491	2
0	5919	8.098118223491	3
0	5923	8.106622223491	2
0	5930	8.119577293878	3
0	5941	8.128081293878	2
0	5941	8.128081293878	3
0	5949	8.136585293878	2
0	5949	8.136585293878	3
0	5958	8.145089293878	2
0	5958	8.145089293878	3
0	5967	8.153593293878	2
0	5967	8.153593293878	3
0	5976	8.162097293878	2
0	5976	8.162097293878	3
0	5981	8.170601293878	2
0	5981	8.170601293878	3
0	5990	8.179105293878	2
0	5990	8.179105293878	3
0	5999	8.187609293878	2
0	5999	8.187609293878	3
0	6012	8.196113293878	2
0	6012	8.196113293878	3
0	6017	8.204617293878	2
0	6017	8.204617293878	3
0	6030	8.213121293878	2
0	6030	8.213121293878	3
0	6035	8.221625293878	2
0	6035	8.221625293878	3
0	6044	8.230129293878	2
0	6044	8.230129293878	3
0	6049	8.238633293878	2
0	6055	8.241536153665	3
0	6059	8.250040153665	2
0	6064	8.257086687463	3
0	6068	8.265590687463	2
0	6073	8.266325030693	3
0	6084	8.274829030693	2
0	6084	8.274829030693	3
0	6093	8.283333030693	2
0	6093	8.283333030693	3
0	6106	8.291837030693	2
0	6106	8.291837030693	3
0	6111	8.300341030693	2
0	6111	8.300341030693	3
0	6124	8.308845030693	2
0	6124	8.308845030693	3
0	6133	8.317349030693	2
0	6133	8.317349030693	3
0	6138	8.325853030693	2
0	6138	8.325853030693	3
0	6147	8.334357030693	2
0	6147	8.334357030693	3
0	6156	8.342861030693	2
0	6156	8.342861030693	3
0	6161	8.351365030693	2
0	6161	8.351365030693	3
0	6166	8.359869030693	2
0	6173	8.378866852484	3
0	6180	8.387370852484	2
0	6180	8.387370852484	3
0	6184	8.395874852484	2
0	6190	8.404399199966	3
0	6198	8.412903199966	2
0	6198	8.412903199966	3
0	6210	8.421407199966	2
0	6210	8.421407199966	3
0	6219	8.429911199966	2
0	6219	8.429911199966	3
0	6236	8.438415199966	2
0	6236	8.438415199966	3
0	6245	8.446919199966	2
0	6245	8.446919199966	3
0	6250	8.455423199966	2
0	6250	8.455423199966	3
0	6255	8.463927199966	2
0	6255	8.463927199966	3
0	6264	8.472431199966	2
0	6264	8.472431199966	3
0	6285	8.480935199966	2
0	6285	8.480935199966	3
0	6310	8.489439199966	2
0	6310	8.489439199966	3
0	6315	8.497943199966	2
0	6315	8.497943199966	3
0	6320	8.506447199966	2
0	6320	8.506447199966	3
0	6333	8.514951199966	2
0	6333	8.514951199966	3
0	6338	8.523455199966	2
0	6338	8.523455199966	3
0	6347	8.531959199966	2
0	6347	8.531959199966	3
0	6352	8.540463199966	2
0	6352	8.540463199966	3
0	6365	8.548967199966	2
0	6365	8.548967199966	3
0	6378	8.557471199966	2
0	6378	8.557471199966	3
0	6387	8.565975199966	2
0	6387	8.565975199966	3
0	6396	8.574479199966	2
0	6396	8.574479199966	3
0	6405	8.582983199966	2
0	6405	8.582983199966	3
0	6410	8.591487199966	2
0	6410	8.591487199966	3
0	6419	8.599991199966	2
0	6419	8.599991199966	3
0	6424	8.608495199966	2
0	6424	8.608495199966	3
0	6433	8.616999199966	2
0	6433	8.616999199966	3
0	6438	8.625503199966	2
0	6438	8.625503199966	3
0	6443	8.634007199966	2
0	6443	8.634007199966	3
0	6456	8.642511199966	2
0	6456	8.642511199966	3
0	6461	8.651015199966	2
0	6461	8.651015199966	3
0	6466	8.659519199966	2
0	6466	8.659519199966	3
0	6471	8.668023199966	2
0	6471	8.668023199966	3
0	6484	8.676527199966	2
0	6484	8.676527199966	3
0	6489	8.685031199966	2
0	6489	8.685031199966	3
0	6494	8.693535199966	2
0	6494	8.693535199966	3
0	6503	8.702039199966	2
0	6503	8.702039199966	3
0	6508	8.710543199966	2
0	6514	8.713791191598	3
0	6518	8.722295191598	2
0	6524	8.766231188615	3
0	6527	8.774735188615	2
0	6532	8.783320760803	3
0	6540	8.791824760803	2
0	6540	8.791824760803	3
0	6548	8.800328760803	2
0	6548	8.800328760803	3
0	6561	8.808832760803	2
0	6561	8.808832760803	3
0	6570	8.817336760803	2
0	6570	8.817336760803	3
0	6579	8.825840760803	2
0	6579	8.825840760803	3
0	6588	8.834344760803	2
0	6588	8.834344760803	3
0	6597	8.842848760803	2
0	6597	8.842848760803	3
0	6618	8.851352760803	2
0	6618	8.851352760803	3
0	6623	8.859856760803	2
0	6623	8.859856760803	3
0	6628	8.868360760803	2
0	6628	8.868360760803	3
0	6633	8.876864760803	2
0	6633	8.876864760803	3
0	6638	8.885368760803	2
0	6638	8.885368760803	3
0	6651	8.893872760803	2
0	6651	8.893872760803	3
0	6660	8.902376760803	2
0	6660	8.902376760803	3
0	6673	8.910880760803	2
0	6673	8.910880760803	3
0	6678	8.919384760803	2
0	6678	8.919384760803	3
0	6683	8.927888760803	2
0	6683	8.927888760803	3
0	6692	8.936392760803	2
0	6692	8.936392760803	3
0	6697	8.944896760803	2
0	6703	8.948868625561	3
0	6707	8.957372625561	2
0	6713	8.989583794137	3
0	6720	8.998087794137	2
0	6720	8.998087794137	3
0	6728	9.006591794137	2
0	6728	9.006591794137	3
0	6737	9.015095794137	2
0	6737	9.015095794137	3
0	6742	9.023599794137	2
0	6749	9.043994329977	3
0	6752	9.052498329977	2
0	6757	9.052821011036	3
0	6764	9.061325011036	2
0	6764	9.061325011036	3
0	6769	9.069829011036	2
0	6776	9.081737536936	3
0	6787	9.090241536936	2
0	6787	9.090241536936	3
0	6799	9.098745536936	2
0	6799	9.098745536936	3
0	6804	9.107249536936	2
0	6804	9.107249536936	3
0	6809	9.115753536936	2
0	6809	9.115753536936	3
0	6818	9.124257536936	2
0	6818	9.124257536936	3
0	6827	9.132761536936	2
0	6827	9.132761536936	3
0	6840	9.141265536936	2
0	6840	9.141265536936	3
0	6845	9.149769536936	2
0	6845	9.149769536936	3
0	6850	9.158273536936	2
0	6856	9.163680452625	3
0	6860	9.172184452625	2
0	6866	9.198491361119	3
0	6869	9.206995361119	2
0	6875	9.256267737116	3
0	6882	9.264771737116	2
0	6882	9.264771737116	3
0	6886	9.273275737116	2
0	6893	9.302570150488	3
0	6896	9.311074150488	2
0	6902	9.321405810743	3
0	6905	9.329909810743	2
0	6910	9.334918444315	3
0	6926	9.343422444315	2
0	6926	9.343422444315	3
0	6930	9.351926444315	2
0	6930	9.351926444315	3
0	6935	9.360430444315	2
0	6935	9.360430444315	3
0	6940	9.368934444315	2
0	6946	9.374124771808	3
0	6954	9.382628771808	2
0	6954	9.382628771808	3
0	6962	9.391132771808	2
0	6962	9.391132771808	3
0	6971	9.399636771808	2
0	6971	9.399636771808	3
0	6976	9.408140771808	2
0	6982	9.411789337981	3
0	6986	9.420293337981	2
0	6992	9.43410221685	3
0	7003	9.44260621685	2
0	7003	9.44260621685	3
0	7007	9.45111021685	2
0	7007	9.45111021685	3
0	7012	9.45961421685	2
0	7018	9.464786619077	3
0	7022	9.473290619077	2
0	7028	9.48523379833	3
0	7043	9.49373779833	2
0	7043	9.49373779833	3
0	7059	9.50224179833	2
0	7059	9.50224179833	3
0	7064	9.51074579833	2
0	7064	9.51074579833	3
0	7077	9.51924979833	2
0	7077	9.51924979833	3
0	7090	9.52775379833	2
0	7090	9.52775379833	3
0	7095	9.53625779833	2
0	7095	9.53625779833	3
0	7100	9.54476179833	2
0	7100	9.54476179833	3
0	7105	9.55326579833	2
0	7105	9.55326579833	3
0	7110	9.56176979833	2
0	7110	9.56176979833	3
0	7115	9.57027379833	2
0	7115	9.57027379833	3
0	7124	9.57877779833	2
0	7124	9.57877779833	3
0	7129	9.58728179833	2
0	7136	9.604784843661	3
0	7143	9.613288843661	2
0	7143	9.613288843661	3
0	7155	9.621792843661	2
0	7155	9.621792843661	3
0	7168	9.630296843661	2
0	7168	9.630296843661	3
0	7177	9.638800843661	2
0	7177	9.638800843661	3
0	7186	9.647304843661	2
0	7186	9.647304843661	3
0	7195	9.655808843661	2
0	7195	9.655808843661	3
0	7200	9.664312843661	2
0	7200	9.664312843661	3
0	7209	9.672816843661	2
0	7209	9.672816843661	3
0	7214	9.681320843661	2
0	7214	9.681320843661	3
0	7223	9.689824843661	2
0	7223	9.689824843661	3
0	7228	9.698328843661	2
0	7235	9.721927110054	3
0	7242	9.730431110054	2
0	7242	9.730431110054	3
0	7246	9.738935110054	2
0	7253	9.754472021242	3
0	7256	9.762976021242	2
0	7261	9.772106421032	3
0	7269	9.780610421032	2
0	7269	9.780610421032	3
0	7277	9.789114421032	2
0	7277	9.789114421032	3
0	7286	9.797618421032	2
0	7286	9.797618421032	3
0	7291	9.806122421032	2
0	7298	9.818058958904	3
0	7313	9.826562958904	2
0	7313	9.826562958904	3
0	7321	9.835066958904	2
0	7321	9.835066958904	3
0	7326	9.843570958904	2
0	7326	9.843570958904	3
0	7335	9.852074958904	2
0	7335	9.852074958904	3
0	7344	9.860578958904	2
0	7344	9.860578958904	3
0	7357	9.869082958904	2
0	7357	9.869082958904	3
0	7374	9.877586958904	2
0	7374	9.877586958904	3
0	7379	9.886090958904	2
0	7379	9.886090958904	3
0	7384	9.894594958904	2
0	7384	9.894594958904	3
0	7389	9.903098958904	2
0	7389	9.903098958904	3
0	7402	9.911602958904	2
0	7402	9.911602958904	3
0	7407	9.920106958904	2
0	7407	9.920106958904	3
0	7412	9.928610958904	2
0	7412	9.928610958904	3
0	7421	9.937114958904	2
0	7421	9.937114958904	3
0	7426	9.945618958904	2
0	7432	9.952813483804	3
0	7440	9.961317483804	2
0	7440	9.961317483804	3
0	7452	9.969821483804	2
0	7452	9.969821483804	3
0	7457	9.978325483804	2
0	7457	9.978325483804	3
0	7466	9.986829483804	2
0	7466	9.986829483804	3
0	7475	9.995333483804	2
0	7475	9.995333483804	3
0	7480	10.003837483804	2
0	7487	10.01538247145	3
0	7494	10.02388647145	2
0	7494	10.02388647145	3
0	7498	10.03239047145	2
0	7505	10.052777330447	3
0	7516	10.061281330447	2
0	7516	10.061281330447	3
0	7520	10.069785330447	2
0	7520	10.069785330447	3
0	7529	10.078289330447	2
0	7529	10.078289330447	3
0	7546	10.086793330447	2
0	7546	10.086793330447	3
0	7551	10.095297330447	2
0	7551	10.095297330447	3
0	7560	10.103801330447	2
0	7560	10.103801330447	3
0	7569	10.112305330447	2
0	7569	10.112305330447	3
0	7574	10.120809330447	2
0	7574	10.120809330447	3
0	7579	10.129313330447	2
0	7585	10.136511199092	3
0	7589	10.145015199092	2
0	7594	10.152370280366	3
0	7602	10.160874280366	2
0	7602	10.160874280366	3
0	7610	10.169378280366	2
0	7610	10.169378280366	3
0	7619	10.177882280366	2
0	7619	10.177882280366	3
0	7624	10.186386280366	2
0	7631	10.199392059481	3
0	7634	10.207896059481	2
0	7639	10.215431991946	3
0	7647	10.223935991946	2
0	7647	10.223935991946	3
0	7655	10.232439991946	2
0	7655	10.232439991946	3
0	7660	10.240943991946	2
0	7667	10.259945303094	3
0	7670	10.268449303094	2
0	7675	10.274818668999	3
0	7683	10.283322668999	2
0	7683	10.283322668999	3
0	7695	10.291826668999	2
0	7695	10.291826668999	3
0	7704	10.300330668999	2
0	7704	10.300330668999	3
0	7709	10.308834668999	2
0	7709	10.308834668999	3
0	7714	10.317338668999	2
0	7720	10.325433591871	3
0	7724	10.333937591871	2
0	7730	10.356248664508	3
0	7737	10.364752664508	2
0	7737	10.364752664508	3
0	7745	10.373256664508	2
0	7745	10.373256664508	3
0	7754	10.381760664508	2
0	7754	10.381760664508	3
0	7759	10.390264664508	2
0	7766	10.415845650437	3
0	7777	10.424349650437	2
0	7777	10.424349650437	3
0	7781	10.432853650437	2
0	7781	10.432853650437	3
0	7786	10.441357650437	2
0	7792	10.44614379017	3
0	7800	10.45464779017	2
0	7800	10.45464779017	3
0	7804	10.46315179017	2
0	7811	10.481775526228	3
0	7818	10.490279526228	2
0	7818	10.490279526228	3
0	7830	10.498783526228	2
0	7830	10.498783526228	3
0	7839	10.507287526228	2
0	7839	10.507287526228	3
0	7848	10.515791526228	2
0	7848	10.515791526228	3
0	7861	10.524295526228	2
0	7861	10.524295526228	3
0	7866	10.532799526228	2
0	7866	10.532799526228	3
0	7871	10.541303526228	2
0	7871	10.541303526228	3
0	7876	10.549807526228	2
0	7882	10.551472165921	3
0	7886	10.559976165921	2
0	7891	10.567261936702	3
0	7895	10.575765936702	2
0	7900	10.582865406406	3
0	7908	10.591369406406	2
0	7908	10.591369406406	3
0	7916	10.599873406406	2
0	7916	10.599873406406	3
0	7921	10.608377406406	2
0	7927	10.615443424712	3
0	7931	10.623947424712	2
0	7937	10.634494976163	3
0	7944	10.642998976163	2
0	7944	10.642998976163	3
0	7948	10.651502976163	2
0	7954	10.657245550876	3
0	7958	10.665749550876	2
0	7963	10.673222403081	3
0	7971	10.681726403081	2
0	7971	10.681726403081	3
0	7975	10.690230403081	2
0	7981	10.699167420259	3
0	7989	10.707671420259	2
0	7989	10.707671420259	3
0	7997	10.716175420259	2
0	7997	10.716175420259	3
0	8006	10.724679420259	2
0	8006	10.724679420259	3
0	8015	10.733183420259	2
0	8015	10.733183420259	3
0	8020	10.741687420259	2
0	8025	10.743003746849	3
0	8033	10.751507746849	2
0	8033	10.751507746849	3
0	8038	10.760011746849	2
0	8045	10.775467711484	3
0	8048	10.783971711484	2
0	8053	10.787325495322	3
0	8061	10.795829495322	2
0	8061	10.795829495322	3
0	8069	10.804333495322	2
0	8069	10.804333495322	3
0	8074	10.812837495322	2
0	8080	10.819934326728	3
0	8092	10.828438326728	2
0	8092	10.828438326728	3
0	8100	10.836942326728	2
0	8100	10.836942326728	3
0	8105	10.845446326728	2
0	8105	10.845446326728	3
0	8114	10.853950326728	2
0	8114	10.853950326728	3
0	8119	10.862454326728	2
0	8126	10.883800759415	3
0	8137	10.892304759415	2
0	8137	10.892304759415	3
0	8149	10.900808759415	2
0	8149	10.900808759415	3
0	8154	10.909312759415	2
0	8154	10.909312759415	3
0	8159	10.917816759415	2
0	8159	10.917816759415	3
0	8172	10.926320759415	2
0	8172	10.926320759415	3
0	8177	10.934824759415	2
0	8177	10.934824759415	3
0	8182	10.943328759415	2
0	8189	10.969571621382	3
0	8196	10.978075621382	2
0	8196	10.978075621382	3
0	8200	10.986579621382	2
0	8206	10.994683306469	3
0	8210	11.003187306469	2
0	8215	11.004713837279	3
0	8223	11.013217837279	2
0	8223	11.013217837279	3
0	8231	11.021721837279	2
0	8231	11.021721837279	3
0	8236	11.030225837279	2
0	8242	11.032241832784	3
0	8250	11.040745832784	2
0	8250	11.040745832784	3
0	8254	11.049249832784	2
0	8259	11.049625857806	3
0	8263	11.058129857806	2
0	8268	11.058366825511	3
0	8276	11.066870825511	2
0	8276	11.066870825511	3
0	8281	11.075374825511	2
0	8288	11.094100384513	3
0	8291	11.102604384513	2
0	8296	11.103806988776	3
0	8299	11.112310988776	2
0	8306	11.124850956984	3
0	8309	11.133354956984	2
0	8314	11.140367820239	3
0	8322	11.148871820239	2
0	8322	11.148871820239	3
0	8326	11.157375820239	2
0	8331	11.158639145618	3
0	8339	11.167143145618	2
0	8339	11.167143145618	3
0	8344	11.175647145618	2
0	8351	11.189587686994	3
0	8366	11.198091686994	2
0	8366	11.198091686994	3
0	8374	11.206595686994	2
0	8374	11.206595686994	3
0	8379	11.215099686994	2
0	8379	11.215099686994	3
0	8384	11.223603686994	2
0	8384	11.223603686994	3
0	8401	11.232107686994	2
0	8401	11.232107686994	3
0	8410	11.240611686994	2
0	8410	11.240611686994	3
0	8415	11.249115686994	2
0	8415	11.249115686994	3
0	8428	11.257619686994	2
0	8428	11.257619686994	3
0	8441	11.266123686994	2
0	8441	11.266123686994	3
0	8446	11.274627686994	2
0	8446	11.274627686994	3
0	8459	11.283131686994	2
0	8459	11.283131686994	3
0	8468	11.291635686994	2
0	8468	11.291635686994	3
0	8473	11.300139686994	2
0	8473	11.300139686994	3
0	8486	11.308643686994	2
0	8486	11.308643686994	3
0	8491	11.317147686994	2
0	8491	11.317147686994	3
0	8500	11.325651686994	2
0	8500	11.325651686994	3
0	8505	11.334155686994	2
0	8505	11.334155686994	3
0	8510	11.342659686994	2
0	8510	11.342659686994	3
0	8523	11.351163686994	2
0	8523	11.351163686994	3
0	8528	11.359667686994	2
0	8528	11.359667686994	3
0	8533	11.368171686994	2
0	8540	11.389370622169	3
0	8551	11.397874622169	2
0	8551	11.397874622169	3
0	8563	11.406378622169	2
0	8563	11.406378622169	3
0	8572	11.414882622169	2
0	8572	11.414882622169	3
0	8581	11.423386622169	2
0	8581	11.423386622169	3
0	8586	11.431890622169	2
0	8586	11.431890622169	3
0	8591	11.440394622169	2
0	8591	11.440394622169	3
0	8600	11.448898622169	2
0	8600	11.448898622169	3
0	8605	11.457402622169	2
0	8612	11.469281165422	3
0	8619	11.477785165422	2
0	8619	11.477785165422	3
0	8631	11.486289165422	2
0	8631	11.486289165422	3
0	8640	11.494793165422	2
0	8640	11.494793165422	3
0	8653	11.503297165422	2
0	8653	11.503297165422	3
0	8662	11.511801165422	2
0	8662	11.511801165422	3
0	8667	11.520305165422	2
0	8667	11.520305165422	3
0	8680	11.528809165422	2
0	8680	11.528809165422	3
0	8685	11.537313165422	2
0	8685	11.537313165422	3
0	8690	11.545817165422	2
0	8690	11.545817165422	3
0	8699	11.554321165422	2
0	8699	11.554321165422	3
0	8704	11.562825165422	2
0	8710	11.567752769304	3
0	8718	11.576256769304	2
0	8718	11.576256769304	3
0	8722	11.584760769304	2
0	8729	11.603677334271	3
0	8736	11.612181334271	2
0	8736	11.612181334271	3
0	8740	11.620685334271	2
0	8747	11.714879777324	3
0	8754	11.723383777324	2
0	8754	11.723383777324	3
0	8766	11.731887777324	2
0	8766	11.731887777324	3
0	8775	11.740391777324	2
0	8775	11.740391777324	3
0	8784	11.748895777324	2
0	8784	11.748895777324	3
0	8789	11.757399777324	2
0	8789	11.757399777324	3
0	8794	11.765903777324	2
0	8801	11.776468459716	3
0	8804	11.784972459716	2
0	8810	11.796101776603	3
0	8813	11.804605776603	2
0	8818	11.811547481873	3
0	8822	11.820051481873	2
0	8827	11.821376736394	3
0	8830	11.829880736394	2
0	8837	11.852035305871	3
0	8844	11.860539305871	2
0	8844	11.860539305871	3
0	8848	11.869043305871	2
0	8855	11.88501284019	3
0	8858	11.89351684019	2
0	8864	11.906560723456	3
0	8871	11.915064723456	2
0	8871	11.915064723456	3
0	8875	11.923568723456	2
0	8881	11.927148011564	3
0	8897	11.935652011564	2
0	8897	11.935652011564	3
0	8905	11.944156011564	2
0	8905	11.944156011564	3
0	8910	11.952660011564	2
0	8910	11.952660011564	3
0	8923	11.961164011564	2
0	8923	11.961164011564	3
0	8932	11.969668011564	2
0	8932	11.969668011564	3
0	8937	11.978172011564	2
0	8937	11.978172011564	3
0	8942	11.986676011564	2
0	8942	11.986676011564	3
0	8947	11.995180011564	2
0	8953	12.002968921421	3
0	8961	12.011472921421	2
0	8961	12.011472921421	3
0	8969	12.019976921421	2
0	8969	12.019976921421	3
0	8974	12.028480921421	2
0	8980	12.030434480195	3
0	8992	12.038938480195	2
0	8992	12.038938480195	3
0	8996	12.047442480195	2
0	8996	12.047442480195	3
0	9009	12.055946480195	2
0	9009	12.055946480195	3
0	9014	12.064450480195	2
0	9014	12.064450480195	3
0	9019	12.072954480195	2
0	9025	12.079045825267	3
0	9029	12.087549825267	2
0	9034	12.087855491063	3
0	9045	12.096359491063	2
0	9045	12.096359491063	3
0	9050	12.104863491063	2
0	9050	12.104863491063	3
0	9055	12.113367491063	2
0	9062	12.128143876901	3
0	9065	12.136647876901	2
0	9070	12.138620345522	3
0	9082	12.147124345522	2
0	9082	12.147124345522	3
0	9094	12.155628345522	2
0	9094	12.155628345522	3
0	9103	12.164132345522	2
0	9103	12.164132345522	3
0	9116	12.172636345522	2
0	9116	12.172636345522	3
0	9125	12.181140345522	2
0	9125	12.181140345522	3
0	9130	12.189644345522	2
0	9130	12.189644345522	3
0	9139	12.198148345522	2
0	9139	12.198148345522	3
0	9148	12.206652345522	2
0	9148	12.206652345522	3
0	9157	12.215156345522	2
0	9157	12.215156345522	3
0	9162	12.223660345522	2
0	9162	12.223660345522	3
0	9171	12.232164345522	2
0	9171	12.232164345522	3
0	9176	12.240668345522	2
0	9176	12.240668345522	3
0	9181	12.249172345522	2
0	9188	12.259568446036	3
0	9191	12.268072446036	2
0	9196	12.277644317983	3
0	9200	12.286148317983	2
0	9206	12.300278103906	3
0	9213	12.308782103906	2
0	9213	12.308782103906	3
0	9221	12.317286103906	2
0	9221	12.317286103906	3
0	9226	12.325790103906	2
0	9233	12.376543888566	3
0	9240	12.385047888566	2
0	9240	12.385047888566	3
0	9252	12.393551888566	2
0	9252	12.393551888566	3
0	9257	12.402055888566	2
0	9257	12.402055888566	3
0	9262	12.410559888566	2
0	9269	12.421260925053	3
0	9272	12.429764925053	2
0	9278	12.461464106321	3
0	9281	12.469968106321	2
0	9286	12.476713539754	3
0	9294	12.485217539754	2
0	9294	12.485217539754	3
0	9310	12.493721539754	2
0	9310	12.493721539754	3
0	9323	12.502225539754	2
0	9323	12.502225539754	3
0	9332	12.510729539754	2
0	9332	12.510729539754	3
0	9341	12.519233539754	2
0	9341	12.519233539754	3
0	9346	12.527737539754	2
0	9346	12.527737539754	3
0	9359	12.536241539754	2
0	9359	12.536241539754	3
0	9368	12.544745539754	2
0	9368	12.544745539754	3
0	9377	12.553249539754	2
0	9377	12.553249539754	3
0	9382	12.561753539754	2
0	9382	12.561753539754	3
0	9387	12.570257539754	2
0	9387	12.570257539754	3
0	9396	12.578761539754	2
0	9396	12.578761539754	3
0	9405	12.587265539754	2
0	9405	12.587265539754	3
0	9410	12.595769539754	2
0	9410	12.595769539754	3
0	9415	12.604273539754	2
0	9422	12.625772679224	3
0	9433	12.634276679224	2
0	9433	12.634276679224	3
0	9445	12.642780679224	2
0	9445	12.642780679224	3
0	9450	12.651284679224	2
0	9450	12.651284679224	3
0	9455	12.659788679224	2
0	9455	12.659788679224	3
0	9468	12.668292679224	2
0	9468	12.668292679224	3
0	9477	12.676796679224	2
0	9477	12.676796679224	3
0	9482	12.685300679224	2
0	9482	12.685300679224	3
0	9491	12.693804679224	2
0	9491	12.693804679224	3
0	9496	12.702308679224	2
0	9501	12.703464023574	3
0	9505	12.711968023574	2
0	9511	12.713262759547	3
0	9514	12.721766759547	2
0	9520	12.727910006009	3
0	9536	12.736414006009	2
0	9536	12.736414006009	3
0	9552	12.744918006009	2
0	9552	12.744918006009	3
0	9557	12.753422006009	2
0	9557	12.753422006009	3
0	9562	12.761926006009	2
0	9562	12.761926006009	3
0	9567	12.770430006009	2
0	9567	12.770430006009	3
0	9572	12.778934006009	2
0	9572	12.778934006009	3
0	9581	12.787438006009	2
0	9581	12.787438006009	3
0	9586	12.795942006009	2
0	9593	12.808797854672	3
0	9604	12.817301854672	2
0	9604	12.817301854672	3
0	9608	12.825805854672	2
0	9608	12.825805854672	3
0	9613	12.834309854672	2
0	9620	12.844883920448	3
0	9631	12.853387920448	2
0	9631	12.853387920448	3
0	9635	12.861891920448	2
0	9635	12.861891920448	3
0	9648	12.870395920448	2
0	9648	12.870395920448	3
0	9657	12.878899920448	2
0	9657	12.878899920448	3
0	9662	12.887403920448	2
0	9662	12.887403920448	3
0	9667	12.895907920448	2
0	9674	12.914763452528	3
0	9677	12.923267452528	2
0	9682	12.927005373264	3
0	9686	12.935509373264	2
0	9691	12.935829960173	3
0	9698	12.944333960173	2
0	9698	12.944333960173	3
0	9703	12.952837960173	2
0	9709	12.959791584487	3
0	9717	12.968295584487	2
0	9717	12.968295584487	3
0	9721	12.976799584487	2
0	9728	13.002673267744	3
0	9731	13.011177267744	2
0	9737	13.026363268028	3
0	9740	13.034867268028	2
0	9745	13.037900513299	3
0	9753	13.046404513299	2
0	9753	13.046404513299	3
0	9761	13.054908513299	2
0	9761	13.054908513299	3
0	9766	13.063412513299	2
0	9773	13.082250158114	3
0	9776	13.090754158114	2
0	9781	13.091172763962	3
0	9792	13.099676763962	2
0	9792	13.099676763962	3
0	9797	13.108180763962	2
0	9797	13.108180763962	3
0	9806	13.116684763962	2
0	9806	13.116684763962	3
0	9811	13.125188763962	2
0	9818	13.140787473859	3
0	9825	13.149291473859	2
0	9825	13.149291473859	3
0	9829	13.157795473859	2
0	9834	13.159129888304	3
0	9842	13.167633888304	2
0	9842	13.167633888304	3
0	9847	13.176137888304	2
0	9854	13.200291339774	3
0	9857	13.208795339774	2
0	9862	13.211747291793	3
0	9866	13.220251291793	2
0	9871	13.221394602606	3
0	9878	13.229898602606	2
0	9878	13.229898602606	3
0	9883	13.238402602606	2
0	9890	13.257395773752	3
0	9897	13.265899773752	2
0	9897	13.265899773752	3
0	9901	13.274403773752	2
0	9907	13.282238548558	3
0	9911	13.290742548558	2
0	9917	13.332722268001	3
0	9920	13.341226268001	2
0	9925	13.351078517217	3
0	9929	13.359582517217	2
0	9934	13.359860921691	3
0	9945	13.368364921691	2
0	9945	13.368364921691	3
0	9954	13.376868921691	2
0	9954	13.376868921691	3
0	9967	13.385372921691	2
0	9967	13.385372921691	3
0	9980	13.393876921691	2
0	9980	13.393876921691	3
0	9989	13.402380921691	2
0	9989	13.402380921691	3
0	9998	13.410884921691	2
0	9998	13.410884921691	3
0	10011	13.419388921691	2
0	10011	13.419388921691	3
0	10016	13.427892921691	2
0	10016	13.427892921691	3
0	10021	13.436396921691	2
0	10021	13.436396921691	3
0	10030	13.444900921691	2
0	10030	13.444900921691	3
0	10035	13.453404921691	2
0	10035	13.453404921691	3
0	10044	13.461908921691	2
0	10044	13.461908921691	3
0	10053	13.470412921691	2
0	10053	13.470412921691	3
0	10058	13.478916921691	2
0	10058	13.478916921691	3
0	10063	13.487420921691	2
0	10069	13.493302162134	3
0	10073	13.501806162134	2
0	10079	13.532669604283	3
0	10086	13.541173604283	2
0	10086	13.541173604283	3
0	10094	13.549677604283	2
0	10094	13.549677604283	3
0	10099	13.558181604283	2
0	10106	13.620572462154	3
0	10109	13.629076462154	2
0	10115	13.673536323404	3
0	10118	13.682040323404	2
0	10123	13.684631918441	3
0	10131	13.693135918441	2
0	10131	13.693135918441	3
0	10147	13.701639918441	2
0	10147	13.701639918441	3
0	10152	13.710143918441	2
0	10152	13.710143918441	3
0	10157	13.718647918441	2
0	10157	13.718647918441	3
0	10162	13.727151918441	2
0	10168	13.736980003678	3
0	10176	13.745484003678	2
0	10176	13.745484003678	3
0	10180	13.753988003678	2
0	10185	13.753999899386	3
0	10193	13.762503899386	2
0	10193	13.762503899386	3
0	10198	13.771007899386	2
0	10205	13.793393387364	3
0	10208	13.801897387364	2
0	10213	13.80904150128	3
0	10221	13.81754550128	2
0	10221	13.81754550128	3
0	10225	13.82604950128	2
0	10231	13.832669835932	3
0	10243	13.841173835932	2
0	10243	13.841173835932	3
0	10251	13.849677835932	2
0	10251	13.849677835932	3
0	10264	13.858181835932	2
0	10264	13.858181835932	3
0	10273	13.866685835932	2
0	10273	13.866685835932	3
0	10282	13.875189835932	2
0	10282	13.875189835932	3
0	10295	13.883693835932	2
0	10295	13.883693835932	3
0	10300	13.892197835932	2
0	10300	13.892197835932	3
0	10313	13.900701835932	2
0	10313	13.900701835932	3
0	10322	13.909205835932	2
0	10322	13.909205835932	3
0	10335	13.917709835932	2
0	10335	13.917709835932	3
0	10340	13.926213835932	2
0	10340	13.926213835932	3
0	10345	13.934717835932	2
0	10345	13.934717835932	3
0	10354	13.943221835932	2
0	10354	13.943221835932	3
0	10359	13.951725835932	2
0	10359	13.951725835932	3
0	10364	13.960229835932	2
0	10364	13.960229835932	3
0	10369	13.968733835932	2
0	10375	13.972388614115	3
0	10383	13.980892614115	2
0	10383	13.980892614115	3
0	10387	13.989396614115	2
0	10393	13.9979959035	3
0	10401	14.0064999035	2
0	10401	14.0064999035	3
0	10409	14.0150039035	2
0	10409	14.0150039035	3
0	10414	14.0235079035	2
0	10420	14.028059606374	3
0	10428	14.036563606374	2
0	10428	14.036563606374	3
0	10436	14.045067606374	2
0	10436	14.045067606374	3
0	10441	14.053571606374	2
0	10447	14.063542407908	3
0	10459	14.072046407908	2
0	10459	14.072046407908	3
0	10467	14.080550407908	2
0	10467	14.080550407908	3
0	10476	14.089054407908	2
0	10476	14.089054407908	3
0	10481	14.097558407908	2
0	10481	14.097558407908	3
0	10490	14.106062407908	2
0	10490	14.106062407908	3
0	10495	14.114566407908	2
0	10502	14.132725928241	3
0	10509	14.141229928241	2
0	10509	14.141229928241	3
0	10517	14.149733928241	2
0	10517	14.149733928241	3
0	10526	14.158237928241	2
0	10526	14.158237928241	3
0	10535	14.166741928241	2
0	10535	14.166741928241	3
0	10540	14.175245928241	2
0	10547	14.211042529821	3
0	10550	14.219546529821	2
0	10555	14.225383885758	3
0	10563	14.233887885758	2
0	10563	14.233887885758	3
0	10571	14.242391885758	2
0	10571	14.242391885758	3
0	10576	14.250895885758	2
0	10583	14.269704757488	3
0	10590	14.278208757488	2
0	10590	14.278208757488	3
0	10594	14.286712757488	2
0	10599	14.286739664877	3
0	10603	14.295243664877	2
0	10610	14.317886242149	3
0	10613	14.326390242149	2
0	10618	14.330997766101	3
0	10626	14.339501766101	2
0	10626	14.339501766101	3
0	10638	14.348005766101	2
0	10638	14.348005766101	3
0	10643	14.356509766101	2
0	10643	14.356509766101	3
0	10652	14.365013766101	2
0	10652	14.365013766101	3
0	10661	14.373517766101	2
0	10661	14.373517766101	3
0	10666	14.382021766101	2
0	10673	14.404633630914	3
0	10676	14.413137630914	2
0	10682	14.428829961941	3
0	10685	14.437333961941	2
0	10691	14.449153631888	3
0	10694	14.457657631888	2
0	10700	14.478244004937	3
0	10707	14.486748004937	2
0	10707	14.486748004937	3
0	10719	14.495252004937	2
0	10719	14.495252004937	3
0	10728	14.503756004937	2
0	10728	14.503756004937	3
0	10733	14.512260004937	2
0	10733	14.512260004937	3
0	10746	14.520764004937	2
0	10746	14.520764004937	3
0	10759	14.529268004937	2
0	10759	14.529268004937	3
0	10768	14.537772004937	2
0	10768	14.537772004937	3
0	10773	14.546276004937	2
0	10773	14.546276004937	3
0	10778	14.554780004937	2
0	10778	14.554780004937	3
0	10783	14.563284004937	2
0	10789	14.565536240248	3
0	10793	14.574040240248	2
0	10799	14.591835748037	3
0	10802	14.600339748037	2
0	10808	14.615455761319	3
0	10811	14.623959761319	2
0	10816	14.62815691902	3
0	10824	14.63666091902	2
0	10824	14.63666091902	3
0	10832	14.64516491902	2
0	10832	14.64516491902	3
0	10837	14.65366891902	2
0	10843	14.663036188375	3
0	10851	14.671540188375	2
0	10851	14.671540188375	3
0	10855	14.680044188375	2
0	10861	14.683659921946	3
0	10869	14.692163921946	2
0	10869	14.692163921946	3
0	10873	14.700667921946	2
0	10879	14.704505866641	3
0	10883	14.713009866641	2
0	10889	14.724281754274	3
0	10896	14.732785754274	2
0	10896	14.732785754274	3
0	10904	14.741289754274	2
0	10904	14.741289754274	3
0	10921	14.749793754274	2
0	10921	14.749793754274	3
0	10926	14.758297754274	2
0	10926	14.758297754274	3
0	10931	14.766801754274	2
0	10931	14.766801754274	3
0	10940	14.775305754274	2
0	10940	14.775305754274	3
0	10949	14.783809754274	2
0	10949	14.783809754274	3
0	10954	14.792313754274	2
0	10961	14.826051481114	3
0	10964	14.834555481114	2
0	10970	14.874426418201	3
0	10973	14.882930418201	2
0	10979	14.933410852154	3
0	10986	14.941914852154	2
0	10986	14.941914852154	3
0	10990	14.950418852154	2
0	10997	14.968343115546	3
0	11004	14.976847115546	2
0	11004	14.976847115546	3
0	11012	14.985351115546	2
0	11012	14.985351115546	3
0	11017	14.993855115546	2
0	11023	14.996059718828	3
0	11031	15.004563718828	2
0	11031	15.004563718828	3
0	11047	15.013067718828	2
0	11047	15.013067718828	3
0	11064	15.021571718828	2
0	11064	15.021571718828	3
0	11073	15.030075718828	2
0	11073	15.030075718828	3
0	11078	15.038579718828	2
0	11078	15.038579718828	3
0	11095	15.047083718828	2
0	11095	15.047083718828	3
0	11112	15.055587718828	2
0	11112	15.055587718828	3
0	11117	15.064091718828	2
0	11117	15.064091718828	3
0	11122	15.072595718828	2
0	11122	15.072595718828	3
0	11127	15.081099718828	2
0	11127	15.081099718828	3
0	11132	15.089603718828	2
0	11132	15.089603718828	3
0	11145	15.098107718828	2
0	11145	15.098107718828	3
0	11150	15.106611718828	2
0	11150	15.106611718828	3
0	11155	15.115115718828	2
0	11155	15.115115718828	3
0	11164	15.123619718828	2
0	11164	15.123619718828	3
0	11173	15.132123718828	2
0	11173	15.132123718828	3
0	11182	15.140627718828	2
0	11182	15.140627718828	3
0	11191	15.149131718828	2
0	11191	15.149131718828	3
0	11196	15.157635718828	2
0	11196	15.157635718828	3
0	11201	15.166139718828	2
0	11201	15.166139718828	3
0	11206	15.174643718828	2
0	11213	15.187336962119	3
0	11220	15.195840962119	2
0	11220	15.195840962119	3
0	11224	15.204344962119	2
0	11230	15.211373974548	3
0	11234	15.219877974548	2
0	11239	15.221098080162	3
0	11246	15.229602080162	2
0	11246	15.229602080162	3
0	11251	15.238106080162	2
0	11258	15.264478986848	3
0	11261	15.272982986848	2
0	11266	15.275424060887	3
0	11278	15.283928060887	2
0	11278	15.283928060887	3
0	11282	15.292432060887	2
0	11282	15.292432060887	3
0	11287	15.300936060887	2
0	11292	15.301685342539	3
0	11296	15.310189342539	2
0	11302	15.3158854682	3
0	11306	15.3243894682	2
0	11312	15.345657447512	3
0	11319	15.354161447512	2
0	11319	15.354161447512	3
0	11323	15.362665447512	2
0	11329	15.366296036474	3
0	11337	15.374800036474	2
0	11337	15.374800036474	3
0	11341	15.383304036474	2
0	11346	15.38391630028	3
0	11350	15.39242030028	2
0	11357	15.42114186717	3
0	11360	15.42964586717	2
0	11366	15.467665394412	3
0	11369	15.476169394412	2
0	11375	15.49139589768	3
0	11382	15.49989989768	2
0	11382	15.49989989768	3
0	11386	15.50840389768	2
0	11393	15.522973491593	3
0	11396	15.531477491593	2
0	11401	15.535187035036	3
0	11413	15.543691035036	2
0	11413	15.543691035036	3
0	11417	15.552195035036	2
0	11417	15.552195035036	3
0	11426	15.560699035036	2
0	11426	15.560699035036	3
0	11435	15.569203035036	2
0	11435	15.569203035036	3
0	11440	15.577707035036	2
0	11446	15.586892290518	3
0	11450	15.595396290518	2
0	11455	15.603433290461	3
0	11459	15.611937290461	2
0	11465	15.622366664431	3
0	11472	15.630870664431	2
0	11472	15.630870664431	3
0	11476	15.639374664431	2
0	11482	15.646019198606	3
0	11486	15.654523198606	2
0	11491	15.655570565834	3
0	11498	15.664074565834	2
0	11498	15.664074565834	3
0	11503	15.672578565834	2
0	11509	15.676756463732	3
0	11525	15.685260463732	2
0	11525	15.685260463732	3
0	11529	15.693764463732	2
0	11529	15.693764463732	3
0	11534	15.702268463732	2
0	11534	15.702268463732	3
0	11539	15.710772463732	2
0	11546	15.731345067869	3
0	11561	15.739849067869	2
0	11561	15.739849067869	3
0	11573	15.748353067869	2
0	11573	15.748353067869	3
0	11578	15.756857067869	2
0	11578	15.756857067869	3
0	11583	15.765361067869	2
0	11583	15.765361067869	3
0	11588	15.773865067869	2
0	11588	15.773865067869	3
0	11593	15.782369067869	2
0	11598	15.783264808076	3
0	11602	15.791768808076	2
0	11609	15.805648705131	3
0	11620	15.814152705131	2
0	11620	15.814152705131	3
0	11624	15.822656705131	2
0	11624	15.822656705131	3
0	11629	15.831160705131	2
0	11635	15.833076215436	3
0	11639	15.841580215436	2
0	11644	15.846040869973	3
0	11652	15.854544869973	2
0	11652	15.854544869973	3
0	11656	15.863048869973	2
0	11663	15.91449779671	3
0	11670	15.92300179671	2
0	11670	15.92300179671	3
0	11674	15.93150579671	2
0	11680	15.939984448207	3
0	11688	15.948488448207	2
0	11688	15.948488448207	3
0	11696	15.956992448207	2
0	11696	15.956992448207	3
0	11701	15.965496448207	2
0	11707	15.970069014515	3
0	11711	15.978573014515	2
0	11716	15.983649151328	3
0	11720	15.992153151328	2
0	11726	16.016990380827	3
0	11729	16.025494380827	2
0	11734	16.028637453625	3
0	11742	16.037141453625	2
0	11742	16.037141453625	3
0	11746	16.045645453625	2
0	11753	16.055759935022	3
0	11756	16.064263935022	2
0	11761	16.073352068143	3
0	11765	16.081856068143	2
0	11770	16.088284209077	3
0	11782	16.096788209077	2
0	11782	16.096788209077	3
0	11790	16.105292209077	2
0	11790	16.105292209077	3
0	11795	16.113796209077	2
0	11795	16.113796209077	3
0	11804	16.122300209077	2
0	11804	16.122300209077	3
0	11809	16.130804209077	2
0	11815	16.132374542561	3
0	11819	16.140878542561	2
0	11825	16.158129479976	3
0	11828	16.166633479976	2
0	11834	16.198910932372	3
0	11837	16.207414932372	2
0	11842	16.216797337903	3
0	11846	16.225301337903	2
0	11852	16.27866475604	3
0	11855	16.28716875604	2
0	11860	16.29011172912	3
0	11876	16.29861572912	2
0	11876	16.29861572912	3
0	11880	16.30711972912	2
0	11880	16.30711972912	3
0	11885	16.31562372912	2
0	11885	16.31562372912	3
0	11894	16.32412772912	2
0	11894	16.32412772912	3
0	11899	16.33263172912	2
0	11905	16.34070485929	3
0	11909	16.34920885929	2
0	11915	16.379577636725	3
0	11926	16.388081636725	2
0	11926	16.388081636725	3
0	11930	16.396585636725	2
0	11930	16.396585636725	3
0	11935	16.405089636725	2
0	11941	16.410274186427	3
0	11949	16.418778186427	2
0	11949	16.418778186427	3
0	11957	16.427282186427	2
0	11957	16.427282186427	3
0	11962	16.435786186427	2
0	11969	16.47294703395	3
0	11976	16.48145103395	2
0	11976	16.48145103395	3
0	11980	16.48995503395	2
0	11986	16.492240667303	3
0	11994	16.500744667303	2
0	11994	16.500744667303	3
0	11998	16.509248667303	2
0	12004	16.515930466867	3
0	12008	16.524434466867	2
0	12013	16.524932531916	3
0	12024	16.533436531916	2
0	12024	16.533436531916	3
0	12033	16.541940531916	2
0	12033	16.541940531916	3
0	12042	16.550444531916	2
0	12042	16.550444531916	3
0	12047	16.558948531916	2
0	12047	16.558948531916	3
0	12056	16.567452531916	2
0	12056	16.567452531916	3
0	12061	16.575956531916	2
0	12068	16.59503935213	3
0	12071	16.60354335213	2
0	12076	16.609252821322	3
0	12080	16.617756821322	2
0	12085	16.627487595274	3
0	12097	16.635991595274	2
0	12097	16.635991595274	3
0	12105	16.644495595274	2
0	12105	16.644495595274	3
0	12110	16.652999595274	2
0	12110	16.652999595274	3
0	12123	16.661503595274	2
0	12123	16.661503595274	3
0	12136	16.670007595274	2
0	12136	16.670007595274	3
0	12141	16.678511595274	2
0	12141	16.678511595274	3
0	12146	16.687015595274	2
0	12146	16.687015595274	3
0	12155	16.695519595274	2
0	12155	16.695519595274	3
0	12172	16.704023595274	2
0	12172	16.704023595274	3
0	12181	16.712527595274	2
0	12181	16.712527595274	3
0	12186	16.721031595274	2
0	12186	16.721031595274	3
0	12195	16.729535595274	2
0	12195	16.729535595274	3
0	12200	16.738039595274	2
0	12200	16.738039595274	3
0	12209	16.746543595274	2
0	12209	16.746543595274	3
0	12218	16.755047595274	2
0	12218	16.755047595274	3
0	12223	16.763551595274	2
0	12229	16.770979525943	3
0	12237	16.779483525943	2
0	12237	16.779483525943	3
0	12245	16.787987525943	2
0	12245	16.787987525943	3
0	12254	16.796491525943	2
0	12254	16.796491525943	3
0	12259	16.804995525943	2
0	12265	16.810131126008	3
0	12269	16.818635126008	2
0	12275	16.847853721011	3
0	12282	16.856357721011	2
0	12282	16.856357721011	3
0	12286	16.864861721011	2
0	12292	16.870679093127	3
0	12296	16.879183093127	2
0	12301	16.883623769676	3
0	12305	16.892127769676	2
0	12310	16.894040574736	3
0	12314	16.902544574736	2
0	12319	16.91193402333	3
0	12323	16.92043802333	2
0	12329	16.946529824366	3
0	12340	16.955033824366	2
0	12340	16.955033824366	3
0	12344	16.963537824366	2
0	12344	16.963537824366	3
0	12357	16.972041824366	2
0	12357	16.972041824366	3
0	12370	16.980545824366	2
0	12370	16.980545824366	3
0	12379	16.989049824366	2
0	12379	16.989049824366	3
0	12392	16.997553824366	2
0	12392	16.997553824366	3
0	12397	17.006057824366	2
0	12397	17.006057824366	3
0	12402	17.014561824366	2
0	12402	17.014561824366	3
0	12411	17.023065824366	2
0	12411	17.023065824366	3
0	12420	17.031569824366	2
0	12420	17.031569824366	3
0	12429	17.040073824366	2
0	12429	17.040073824366	3
0	12438	17.048577824366	2
0	12438	17.048577824366	3
0	12443	17.057081824366	2
0	12443	17.057081824366	3
0	12456	17.065585824366	2
0	12456	17.065585824366	3
0	12473	17.074089824366	2
0	12473	17.074089824366	3
0	12482	17.082593824366	2
0	12482	17.082593824366	3
0	12491	17.091097824366	2
0	12491	17.091097824366	3
0	12496	17.099601824366	2
0	12496	17.099601824366	3
0	12501	17.108105824366	2
0	12501	17.108105824366	3
0	12506	17.116609824366	2
0	12506	17.116609824366	3
0	12515	17.125113824366	2
0	12515	17.125113824366	3
0	12520	17.133617824366	2
0	12527	17.165344743777	3
0	12530	17.173848743777	2
0	12535	17.176959727879	3
0	12539	17.185463727879	2
0	12544	17.188491961638	3
0	12548	17.196995961638	2
0	12554	17.239195164456	3
0	12557	17.247699164456	2
0	12563	17.265389681026	3
0	12566	17.273893681026	2
0	12571	17.282771290777	3
0	12579	17.291275290777	2
0	12579	17.291275290777	3
0	12591	17.299779290777	2
0	12591	17.299779290777	3
0	12600	17.308283290777	2
0	12600	17.308283290777	3
0	12605	17.316787290777	2
0	12605	17.316787290777	3
0	12610	17.325291290777	2
0	12617	17.359168993052	3
0	12620	17.367672993052	2
0	12626	17.388354616351	3
0	12637	17.396858616351	2
0	12637	17.396858616351	3
0	12641	17.405362616351	2
0	12641	17.405362616351	3
0	12646	17.413866616351	2
0	12652	17.417640931295	3
0	12656	17.426144931295	2
0	12661	17.426885680229	3
0	12668	17.435389680229	2
0	12668	17.435389680229	3
0	12677	17.443893680229	2
0	12677	17.443893680229	3
0	12682	17.452397680229	2
0	12688	17.455405209658	3
0	12704	17.463909209658	2
0	12704	17.463909209658	3
0	12720	17.472413209658	2
0	12720	17.472413209658	3
0	12725	17.480917209658	2
0	12725	17.480917209658	3
0	12746	17.489421209658	2
0	12746	17.489421209658	3
0	12759	17.497925209658	2
0	12759	17.497925209658	3
0	12768	17.506429209658	2
0	12768	17.506429209658	3
0	12773	17.514933209658	2
0	12773	17.514933209658	3
0	12782	17.523437209658	2
0	12782	17.523437209658	3
0	12787	17.531941209658	2
0	12787	17.531941209658	3
0	12792	17.540445209658	2
0	12792	17.540445209658	3
0	12797	17.548949209658	2
0	12797	17.548949209658	3
0	12802	17.557453209658	2
0	12802	17.557453209658	3
0	12807	17.565957209658	2
0	12807	17.565957209658	3
0	12812	17.574461209658	2
0	12812	17.574461209658	3
0	12817	17.582965209658	2
0	12823	17.589664708127	3
0	12827	17.598168708127	2
0	12832	17.59882697533	3
0	12835	17.60733097533	2
0	12842	17.633459336445	3
0	12853	17.641963336445	2
0	12853	17.641963336445	3
0	12861	17.650467336445	2
0	12861	17.650467336445	3
0	12870	17.658971336445	2
0	12870	17.658971336445	3
0	12879	17.667475336445	2
0	12879	17.667475336445	3
0	12888	17.675979336445	2
0	12888	17.675979336445	3
0	12897	17.684483336445	2
0	12897	17.684483336445	3
0	12902	17.692987336445	2
0	12902	17.692987336445	3
0	12907	17.701491336445	2
0	12914	17.712646049883	3
0	12917	17.721150049883	2
0	12923	17.738575412408	3
0	12926	17.747079412408	2
0	12931	17.753102451577	3
0	12939	17.761606451577	2
0	12939	17.761606451577	3
0	12951	17.770110451577	2
0	12951	17.770110451577	3
0	12956	17.778614451577	2
0	12956	17.778614451577	3
0	12965	17.787118451577	2
0	12965	17.787118451577	3
0	12978	17.795622451577	2
0	12978	17.795622451577	3
0	12983	17.804126451577	2
0	12983	17.804126451577	3
0	12988	17.812630451577	2
0	12994	17.817524717539	3
0	12998	17.826028717539	2
0	13003	17.832339997053	3
0	13007	17.840843997053	2
0	13012	17.843802759441	3
0	13016	17.852306759441	2
0	13022	17.862674183292	3
0	13025	17.871178183292	2
0	13031	17.884342977464	3
0	13038	17.892846977464	2
0	13038	17.892846977464	3
0	13042	17.901350977464	2
0	13049	17.917832764971	3
0	13052	17.926336764971	2
0	13058	17.947616035484	3
0	13065	17.956120035484	2
0	13065	17.956120035484	3
0	13073	17.964624035484	2
0	13073	17.964624035484	3
0	13082	17.973128035484	2
0	13082	17.973128035484	3
0	13091	17.981632035484	2
0	13091	17.981632035484	3
0	13096	17.990136035484	2
0	13103	18.014182767162	3
0	13110	18.022686767162	2
0	13110	18.022686767162	3
0	13114	18.031190767162	2
0	13121	18.067756967213	3
0	13124	18.076260967213	2
0	13130	18.095646499436	3
0	13137	18.104150499436	2
0	13137	18.104150499436	3
0	13141	18.112654499436	2
0	13148	18.123421374774	3
0	13151	18.131925374774	2
0	13156	18.141007867353	3
0	13160	18.149511867353	2
0	13165	18.154602398472	3
0	13177	18.163106398472	2
0	13177	18.163106398472	3
0	13181	18.171610398472	2
0	13181	18.171610398472	3
0	13190	18.180114398472	2
0	13190	18.180114398472	3
0	13195	18.188618398472	2
0	13201	18.197427728398	3
0	13209	18.205931728398	2
0	13209	18.205931728398	3
0	13217	18.214435728398	2
0	13217	18.214435728398	3
0	13226	18.222939728398	2
0	13226	18.222939728398	3
0	13231	18.231443728398	2
0	13238	18.244401254609	3
0	13245	18.252905254609	2
0	13245	18.252905254609	3
0	13253	18.261409254609	2
0	13253	18.261409254609	3
0	13266	18.269913254609	2
0	13266	18.269913254609	3
0	13271	18.278417254609	2
0	13271	18.278417254609	3
0	13280	18.286921254609	2
0	13280	18.286921254609	3
0	13285	18.295425254609	2
0	13291	18.303534344759	3
0	13307	18.312038344759	2
0	13307	18.312038344759	3
0	13311	18.320542344759	2
0	13311	18.320542344759	3
0	13316	18.329046344759	2
0	13316	18.329046344759	3
0	13321	18.337550344759	2
0	13327	18.346481120491	3
0	13331	18.354985120491	2
0	13336	18.359682559216	3
0	13340	18.368186559216	2
0	13346	18.399640389274	3
0	13349	18.408144389274	2
0	13354	18.408738872919	3
0	13357	18.417242872919	2
0	13364	18.428176885407	3
0	13371	18.436680885407	2
0	13371	18.436680885407	3
0	13383	18.445184885407	2
0	13383	18.445184885407	3
0	13388	18.453688885407	2
0	13388	18.453688885407	3
0	13397	18.462192885407	2
0	13397	18.462192885407	3
0	13406	18.470696885407	2
0	13406	18.470696885407	3
0	13411	18.479200885407	2
0	13418	18.490639631311	3
0	13421	18.499143631311	2
0	13427	18.539729745173	3
0	13450	18.548233745173	2
0	13450	18.548233745173	3
0	13458	18.556737745173	2
0	13458	18.556737745173	3
0	13463	18.565241745173	2
0	13463	18.565241745173	3
0	13468	18.573745745173	2
0	13468	18.573745745173	3
0	13481	18.582249745173	2
0	13481	18.582249745173	3
0	13490	18.590753745173	2
0	13490	18.590753745173	3
0	13495	18.599257745173	2
0	13495	18.599257745173	3
0	13500	18.607761745173	2
0	13500	18.607761745173	3
0	13505	18.616265745173	2
0	13505	18.616265745173	3
0	13514	18.624769745173	2
0	13514	18.624769745173	3
0	13523	18.633273745173	2
0	13523	18.633273745173	3
0	13528	18.641777745173	2
0	13535	18.652034610161	3
0	13538	18.660538610161	2
0	13543	18.661643237553	3
0	13546	18.670147237553	2
0	13553	18.708870706542	3
0	13556	18.717374706542	2
0	13561	18.719530791198	3
0	13573	18.728034791198	2
0	13573	18.728034791198	3
0	13581	18.736538791198	2
0	13581	18.736538791198	3
0	13590	18.745042791198	2
0	13590	18.745042791198	3
0	13595	18.753546791198	2
0	13595	18.753546791198	3
0	13604	18.762050791198	2
0	13604	18.762050791198	3
0	13613	18.770554791198	2
0	13613	18.770554791198	3
0	13622	18.779058791198	2
0	13622	18.779058791198	3
0	13627	18.787562791198	2
0	13634	18.797705895557	3
0	13641	18.806209895557	2
0	13641	18.806209895557	3
0	13645	18.814713895557	2
0	13652	18.848799809162	3
0	13655	18.857303809162	2
0	13660	18.861385903112	3
0	13664	18.869889903112	2
0	13670	18.886929289065	3
0	13673	18.895433289065	2
0	13678	18.896670773771	3
0	13681	18.905174773771	2
0	13687	18.91290987624	3
0	13691	18.92141387624	2
0	13696	18.930574407589	3
0	13700	18.939078407589	2
0	13706	18.959238449132	3
0	13713	18.967742449132	2
0	13713	18.967742449132	3
0	13721	18.976246449132	2
0	13721	18.976246449132	3
0	13730	18.984750449132	2
0	13730	18.984750449132	3
0	13735	18.993254449132	2
0	13742	19.008502202654	3
0	13749	19.017006202654	2
0	13749	19.017006202654	3
0	13753	19.025510202654	2
0	13760	19.058432075153	3
0	13763	19.066936075153	2
0	13769	19.083428778854	3
0	13776	19.091932778854	2
0	13776	19.091932778854	3
0	13784	19.100436778854	2
0	13784	19.100436778854	3
0	13793	19.108940778854	2
0	13793	19.108940778854	3
0	13798	19.117444778854	2
0	13804	19.123703315737	3
0	13808	19.132207315737	2
0	13814	19.152140087268	3
0	13817	19.160644087268	2
0	13823	19.171445271039	3
0	13830	19.179949271039	2
0	13830	19.179949271039	3
0	13838	19.188453271039	2
0	13838	19.188453271039	3
0	13843	19.196957271039	2
0	13849	19.198713804147	3
0	13861	19.207217804147	2
0	13861	19.207217804147	3
0	13873	19.215721804147	2
0	13873	19.215721804147	3
0	13878	19.224225804147	2
0	13878	19.224225804147	3
0	13883	19.232729804147	2
0	13883	19.232729804147	3
0	13892	19.241233804147	2
0	13892	19.241233804147	3
0	13901	19.249737804147	2
0	13901	19.249737804147	3
0	13910	19.258241804147	2
0	13910	19.258241804147	3
0	13915	19.266745804147	2
[...]
12	44913	59.656663368408	1051
12	44926	59.665167368408	1051
12	44935	59.673671368408	1051
12	44940	59.682175368408	1051
12	44945	59.690679368408	1051
12	44950	59.699183368408	1051
12	44959	59.707687368408	1051
12	44976	59.716191368408	1051
12	44989	59.724695368408	1051
12	44994	59.733199368408	1051
12	45007	59.741703368408	1051
12	45020	59.750207368408	1051
12	45029	59.758711368408	1051
12	45034	59.767215368408	1051
12	45043	59.775719368408	1051
12	45048	59.784223368408	1051
12	45057	59.792727368408	1051
12	45062	59.801231368408	1051
12	45075	59.809735368408	1051
12	45084	59.818239368408	1051
12	45093	59.826743368408	1051
12	45098	59.835247368408	1051
12	45107	59.843751368408	1051
12	45116	59.852255368408	1051
12	45125	59.860759368408	1051
12	45130	59.869263368408	1051
12	45135	59.877767368408	1051
12	45144	59.886271368408	1051
12	45153	59.894775368408	1051
12	45166	59.903279368408	1051
12	45179	59.911783368408	1051
12	45196	59.920287368408	1051
12	45205	59.928791368408	1051
12	45210	59.937295368408	1051
12	45219	59.945799368408	1051
12	45224	59.954303368408	1051
12	45233	59.962807368408	1051
12	45238	59.971311368408	1051
12	45247	59.979815368408	1051
12	45256	59.988319368408	1051
12	45261	59.996823368408	1051
13	45270	0.1	0
13	45270	0.2	0
13	45270	0.3	0
13	45270	0.4	0
13	45270	0.5	0
13	45270	0.6	0
13	45270	0.7	0
13	45270	0.8	0
13	45270	0.9	0
13	45270	1	0
13	45270	1.1	0
13	45270	1.2	0
13	45270	1.3	0
13	45270	1.4	0
13	45270	1.5	0
13	45270	1.6	0
13	45270	1.7	0
13	45270	1.8	0
13	45270	1.9	0
13	45270	2	0
13	45270	2.1	0
13	45270	2.2	0
13	45270	2.3	0
13	45270	2.4	0
13	45270	2.5	0
13	45270	2.6	0
13	45270	2.7	0
13	45270	2.8	0
13	45270	2.9	0
13	45270	3	0
13	45270	3.1	0
13	45270	3.2	0
13	45270	3.3	0
13	45270	3.4	0
13	45270	3.5	0
13	45270	3.6	0
13	45270	3.7	0
13	45270	3.8	0
13	45270	3.9	0
13	45270	4	0
13	45270	4.1	0
13	45270	4.2	0
13	45270	4.3	0
13	45270	4.4	0
13	45270	4.5	0
13	45270	4.6	0
13	45270	4.7	0
13	45270	4.8	0
13	45270	4.9	0
13	45270	5	0
13	45270	5.1	0
13	45270	5.2	0
13	45270	5.3	0
13	45270	5.4	0
13	45270	5.5	0
13	45270	5.6	0
13	45270	5.7	0
13	45270	5.8	0
13	45270	5.9	0
13	45270	6	0
13	45270	6.1	0
13	45270	6.2	0
13	45270	6.3	0
13	45270	6.4	0
13	45270	6.5	0
13	45270	6.6	0
13	45270	6.7	0
13	45270	6.8	0
13	45270	6.9	0
13	45270	7	0
13	45270	7.1	0
13	45270	7.2	0
13	45270	7.3	0
13	45270	7.4	0
13	45270	7.5	0
13	45270	7.6	0
13	45270	7.7	0
13	45270	7.8	0
13	45270	7.9	0
13	45270	8	0
13	45270	8.1	0
13	45270	8.2	0
13	45270	8.3	0
13	45270	8.4	0
13	45270	8.5	0
13	45270	8.6	0
13	45270	8.7	0
13	45270	8.8	0
13	45270	8.9	0
13	45270	9	0
13	45270	9.1	0
13	45270	9.2	0
13	45270	9.3	0
13	45270	9.4	0
13	45270	9.5	0
13	45270	9.6	0
13	45270	9.7	0
13	45270	9.8	0
13	45270	9.9	0
13	45270	10	0
13	45270	10.1	0
13	45270	10.2	0
13	45270	10.3	0
13	45270	10.4	0
13	45270	10.5	0
13	45270	10.6	0
13	45270	10.7	0
13	45270	10.8	0
13	45270	10.9	0
13	45270	11	0
13	45270	11.1	0
13	45270	11.2	0
13	45270	11.3	0
13	45270	11.4	0
13	45270	11.5	0
13	45270	11.6	0
13	45270	11.7	0
13	45270	11.8	0
13	45270	11.9	0
13	45270	12	0
13	45270	12.1	0
13	45270	12.2	0
13	45270	12.3	0
13	45270	12.4	0
13	45270	12.5	0
13	45270	12.6	0
13	45270	12.7	0
13	45270	12.8	0
13	45270	12.9	0
13	45270	13	0
13	45270	13.1	0
13	45270	13.2	0
13	45270	13.3	0
13	45270	13.4	0
13	45270	13.5	0
13	45270	13.6	0
13	45270	13.7	0
13	45270	13.8	0
13	45270	13.9	0
13	45270	14	0
13	45270	14.1	0
13	45270	14.2	0
13	45270	14.3	0
13	45270	14.4	0
13	45270	14.5	0
13	45270	14.6	0
13	45270	14.7	0
13	45270	14.8	0
13	45270	14.9	0
13	45270	15	0
13	45270	15.1	0
13	45270	15.2	0
13	45270	15.3	0
13	45270	15.4	0
13	45270	15.5	0
13	45270	15.6	0
13	45270	15.7	0
13	45270	15.8	0
13	45270	15.9	0
13	45270	16	0
13	45270	16.1	0
13	45270	16.2	0
13	45270	16.3	0
13	45270	16.4	0
13	45270	16.5	0
13	45270	16.6	0
13	45270	16.7	0
13	45270	16.8	0
13	45270	16.9	0
13	45270	17	0
13	45270	17.1	0
13	45270	17.2	0
13	45270	17.3	0
13	45270	17.4	0
13	45270	17.5	0
13	45270	17.6	0
13	45270	17.7	0
13	45270	17.8	0
13	45270	17.9	0
13	45270	18	0
13	45270	18.1	0
13	45270	18.2	0
13	45270	18.3	0
13	45270	18.4	0
13	45270	18.5	0
13	45270	18.6	0
13	45270	18.7	0
13	45270	18.8	0
13	45270	18.9	0
13	45270	19	0
13	45270	19.1	0
13	45270	19.2	0
13	45270	19.3	0
13	45270	19.4	0
13	45270	19.5	0
13	45270	19.6	0
13	45270	19.7	0
13	45270	19.8	0
13	45270	19.9	0
13	45270	20	0
13	45270	20.1	0
13	45270	20.2	0
13	45270	20.3	0
13	45270	20.4	0
13	45270	20.5	0
13	45270	20.6	0
13	45270	20.7	0
13	45270	20.8	0
13	45270	20.9	0
13	45270	21	0
13	45270	21.1	0
13	45270	21.2	0
13	45270	21.3	0
13	45270	21.4	0
13	45270	21.5	0
13	45270	21.6	0
13	45270	21.7	0
13	45270	21.8	0
13	45270	21.9	0
13	45270	22	0
13	45270	22.1	0
13	45270	22.2	0
13	45270	22.3	0
13	45270	22.4	0
13	45270	22.5	0
13	45270	22.6	0
13	45270	22.7	0
13	45270	22.8	0
13	45270	22.9	0
13	45270	23	0
13	45270	23.1	0
13	45270	23.2	0
13	45270	23.3	0
13	45270	23.4	0
13	45270	23.5	0
13	45270	23.6	0
13	45270	23.7	0
13	45270	23.8	0
13	45270	23.9	0
13	45270	24	0
13	45270	24.1	0
13	45270	24.2	0
13	45270	24.3	0
13	45270	24.4	0
13	45270	24.5	0
13	45270	24.6	0
13	45270	24.7	0
13	45270	24.8	0
13	45270	24.9	0
13	45270	25	0
13	45270	25.1	0
13	45270	25.2	0
13	45270	25.3	0
13	45270	25.4	0
13	45270	25.5	0
13	45270	25.6	0
13	45270	25.7	0
13	45270	25.8	0
13	45270	25.9	0
13	45270	26	0
13	45270	26.1	0
13	45270	26.2	0
13	45270	26.3	0
13	45270	26.4	0
13	45270	26.5	0
13	45270	26.6	0
13	45270	26.7	0
13	45270	26.8	0
13	45270	26.9	0
13	45270	27	0
13	45270	27.1	0
13	45270	27.2	0
13	45270	27.3	0
13	45270	27.4	0
13	45270	27.5	0
13	45270	27.6	0
13	45270	27.7	0
13	45270	27.8	0
13	45270	27.9	0
13	45270	28	0
13	45270	28.1	0
13	45270	28.2	0
13	45270	28.3	0
13	45270	28.4	0
13	45270	28.5	0
13	45270	28.6	0
13	45270	28.7	0
13	45270	28.8	0
13	45270	28.9	0
13	45270	29	0
13	45270	29.1	0
13	45270	29.2	0
13	45270	29.3	0
13	45270	29.4	0
13	45270	29.5	0
13	45270	29.6	0
13	45270	29.7	0
13	45270	29.8	0
13	45270	29.9	0
13	45270	30	0
13	45270	30.1	0
13	45270	30.2	0
13	45270	30.3	0
13	45270	30.4	0
13	45270	30.5	0
13	45270	30.6	0
13	45270	30.7	0
13	45270	30.8	0
13	45270	30.9	0
13	45270	31	0
13	45270	31.1	0
13	45270	31.2	0
13	45270	31.3	0
13	45270	31.4	0
13	45270	31.5	0
13	45270	31.6	0
13	45270	31.7	0
13	45270	31.8	0
13	45270	31.9	0
13	45270	32	0
13	45270	32.1	0
13	45270	32.2	0
13	45270	32.3	0
13	45270	32.4	0
13	45270	32.5	0
13	45270	32.6	0
13	45270	32.7	0
13	45270	32.8	0
13	45270	32.9	0
13	45270	33	0
13	45270	33.1	0
13	45270	33.2	0
13	45270	33.3	0
13	45270	33.4	0
13	45270	33.5	0
13	45270	33.6	0
13	45270	33.7	0
13	45270	33.8	0
13	45270	33.9	0
13	45270	34	0
13	45270	34.1	0
13	45270	34.2	0
13	45270	34.3	0
13	45270	34.4	0
13	45270	34.5	0
13	45270	34.6	0
13	45270	34.7	0
13	45270	34.8	0
13	45270	34.9	0
13	45270	35	0
13	45270	35.1	0
13	45270	35.2	0
13	45270	35.3	0
13	45270	35.4	0
13	45270	35.5	0
13	45270	35.6	0
13	45270	35.7	0
13	45270	35.8	0
13	45270	35.9	0
13	45270	36	0
13	45270	36.1	0
13	45270	36.2	0
13	45270	36.3	0
13	45270	36.4	0
13	45270	36.5	0
13	45270	36.6	0
13	45270	36.7	0
13	45270	36.8	0
13	45270	36.9	0
13	45270	37	0
13	45270	37.1	0
13	45270	37.2	0
13	45270	37.3	0
13	45270	37.4	0
13	45270	37.5	0
13	45270	37.6	0
13	45270	37.7	0
13	45270	37.8	0
13	45270	37.9	0
13	45270	38	0
13	45270	38.1	0
13	45270	38.2	0
13	45270	38.3	0
13	45270	38.4	0
13	45270	38.5	0
13	45270	38.6	0
13	45270	38.7	0
13	45270	38.8	0
13	45270	38.9	0
13	45270	39	0
13	45270	39.1	0
13	45270	39.2	0
13	45270	39.3	0
13	45270	39.4	0
13	45270	39.5	0
13	45270	39.6	0
13	45270	39.7	0
13	45270	39.8	0
13	45270	39.9	0
13	45270	40	0
13	45270	40.1	0
13	45270	40.2	0
13	45270	40.3	0
13	45270	40.4	0
13	45270	40.5	0
13	45270	40.6	0
13	45270	40.7	0
13	45270	40.8	0
13	45270	40.9	0
13	45270	41	0
13	45270	41.1	0
13	45270	41.2	0
13	45270	41.3	0
13	45270	41.4	0
13	45270	41.5	0
13	45270	41.6	0
13	45270	41.7	0
13	45270	41.8	0
13	45270	41.9	0
13	45270	42	0
13	45270	42.1	0
13	45270	42.2	0
13	45270	42.3	0
13	45270	42.4	0
13	45270	42.5	0
13	45270	42.6	0
13	45270	42.7	0
13	45270	42.8	0
13	45270	42.9	0
13	45270	43	0
13	45270	43.1	0
13	45270	43.2	0
13	45270	43.3	0
13	45270	43.4	0
13	45270	43.5	0
13	45270	43.6	0
13	45270	43.7	0
13	45270	43.8	0
13	45270	43.9	0
13	45270	44	0
13	45270	44.1	0
13	45270	44.2	0
13	45270	44.3	0
13	45270	44.4	0
13	45270	44.5	0
13	45270	44.6	0
13	45270	44.7	0
13	45270	44.8	0
13	45270	44.9	0
13	45270	45	0
13	45270	45.1	0
13	45270	45.2	0
13	45270	45.3	0
13	45270	45.4	0
13	45270	45.5	0
13	45270	45.6	0
13	45270	45.7	0
13	45270	45.8	0
13	45270	45.9	0
13	45270	46	0
13	45270	46.1	0
13	45270	46.2	0
13	45270	46.3	0
13	45270	46.4	0
13	45270	46.5	0
13	45270	46.6	0
13	45270	46.7	0
13	45270	46.8	0
13	45270	46.9	0
13	45270	47	0
13	45270	47.1	0
13	45270	47.2	0
13	45270	47.3	0
13	45270	47.4	0
13	45270	47.5	0
13	45270	47.6	0
13	45270	47.7	0
13	45270	47.8	0
13	45270	47.9	0
13	45270	48	0
13	45270	48.1	0
13	45270	48.2	0
13	45270	48.3	0
13	45270	48.4	0
13	45270	48.5	0
13	45270	48.6	0
13	45270	48.7	0
13	45270	48.8	0
13	45270	48.9	0
13	45270	49	0
13	45270	49.1	0
13	45270	49.2	0
13	45270	49.3	0
13	45270	49.4	0
13	45270	49.5	0
13	45270	49.6	0
13	45270	49.7	0
13	45270	49.8	0
13	45270	49.9	0
13	45270	50	0
13	45270	50.1	0
13	45270	50.2	0
13	45270	50.3	0
13	45270	50.4	0
13	45270	50.5	0
13	45270	50.6	0
13	45270	50.7	0
13	45270	50.8	0
13	45270	50.9	0
13	45270	51	0
13	45270	51.1	0
13	45270	51.2	0
13	45270	51.3	0
13	45270	51.4	0
13	45270	51.5	0
13	45270	51.6	0
13	45270	51.7	0
13	45270	51.8	0
13	45270	51.9	0
13	45270	52	0
13	45270	52.1	0
13	45270	52.2	0
13	45270	52.3	0
13	45270	52.4	0
13	45270	52.5	0
13	45270	52.6	0
13	45270	52.7	0
13	45270	52.8	0
13	45270	52.9	0
13	45270	53	0
13	45270	53.1	0
13	45270	53.2	0
13	45270	53.3	0
13	45270	53.4	0
13	45270	53.5	0
13	45270	53.6	0
13	45270	53.7	0
13	45270	53.8	0
13	45270	53.9	0
13	45270	54	0
13	45270	54.1	0
13	45270	54.2	0
13	45270	54.3	0
13	45270	54.4	0
13	45270	54.5	0
13	45270	54.6	0
13	45270	54.7	0
13	45270	54.8	0
13	45270	54.9	0
13	45270	55	0
13	45270	55.1	0
13	45270	55.2	0
13	45270	55.3	0
13	45270	55.4	0
13	45270	55.5	0
13	45270	55.6	0
13	45270	55.7	0
13	45270	55.8	0
13	45270	55.9	0
13	45270	56	0
13	45270	56.1	0
13	45270	56.2	0
13	45270	56.3	0
13	45270	56.4	0
13	45270	56.5	0
13	45270	56.6	0
13	45270	56.7	0
13	45270	56.8	0
13	45270	56.9	0
13	45270	57	0
13	45270	57.1	0
13	45270	57.2	0
13	45270	57.3	0
13	45270	57.4	0
13	45270	57.5	0
13	45270	57.6	0
13	45270	57.7	0
13	45270	57.8	0
13	45270	57.9	0
13	45270	58	0
13	45270	58.1	0
13	45270	58.2	0
13	45270	58.3	0
13	45270	58.4	0
13	45270	58.5	0
13	45270	58.6	0
13	45270	58.7	0
13	45270	58.8	0
13	45270	58.9	0
13	45270	59	0
13	45270	59.1	0
13	45270	59.2	0
13	45270	59.3	0
13	45270	59.4	0
13	45270	59.5	0
13	45270	59.6	0
13	45270	59.7	0
13	45270	59.8	0
13	45270	59.9	0
13	45270	60	0
14	45270	0.1	0
14	45270	0.2	0
14	45270	0.3	0
14	45270	0.4	0
14	45270	0.5	0
14	45270	0.6	0
14	45270	0.7	0
14	45270	0.8	0
14	45270	0.9	0
14	45270	1	0
14	45270	1.1	0
14	45270	1.2	0
14	45270	1.3	0
14	45270	1.4	0
14	45270	1.5	0
14	45270	1.6	0
14	45270	1.7	0
14	45270	1.8	0
14	45270	1.9	0
14	45270	2	0
14	45270	2.1	0
14	45270	2.2	0
14	45270	2.3	0
14	45270	2.4	0
14	45270	2.5	0
14	45270	2.6	0
14	45270	2.7	0
14	45270	2.8	0
14	45270	2.9	0
14	45270	3	0
14	45270	3.1	0
14	45270	3.2	0
14	45270	3.3	0
14	45270	3.4	0
14	45270	3.5	0
14	45270	3.6	0
14	45270	3.7	0
14	45270	3.8	0
14	45270	3.9	0
14	45270	4	0
14	45270	4.1	0
14	45270	4.2	0
14	45270	4.3	0
14	45270	4.4	0
14	45270	4.5	0
14	45270	4.6	0
14	45270	4.7	0
14	45270	4.8	0
14	45270	4.9	0
14	45270	5	0
14	45270	5.1	0
14	45270	5.2	0
14	45270	5.3	0
14	45270	5.4	0
14	45270	5.5	0
14	45270	5.6	0
14	45270	5.7	0
14	45270	5.8	0
14	45270	5.9	0
14	45270	6	0
14	45270	6.1	0
14	45270	6.2	0
14	45270	6.3	0
14	45270	6.4	0
14	45270	6.5	0
14	45270	6.6	0
14	45270	6.7	0
14	45270	6.8	0
14	45270	6.9	0
14	45270	7	0
14	45270	7.1	0
14	45270	7.2	0
14	45270	7.3	0
14	45270	7.4	0
14	45270	7.5	0
14	45270	7.6	0
14	45270	7.7	0
14	45270	7.8	0
14	45270	7.9	0
14	45270	8	0
14	45270	8.1	0
14	45270	8.2	0
14	45270	8.3	0
14	45270	8.4	0
14	45270	8.5	0
14	45270	8.6	0
14	45270	8.7	0
14	45270	8.8	0
14	45270	8.9	0
14	45270	9	0
14	45270	9.1	0
14	45270	9.2	0
14	45270	9.3	0
14	45270	9.4	0
14	45270	9.5	0
14	45270	9.6	0
14	45270	9.7	0
14	45270	9.8	0
14	45270	9.9	0
14	45270	10	0
14	45270	10.1	0
14	45270	10.2	0
14	45270	10.3	0
14	45270	10.4	0
14	45270	10.5	0
14	45270	10.6	0
14	45270	10.7	0
14	45270	10.8	0
14	45270	10.9	0
14	45270	11	0
14	45270	11.1	0
14	45270	11.2	0
14	45270	11.3	0
14	45270	11.4	0
14	45270	11.5	0
14	45270	11.6	0
14	45270	11.7	0
14	45270	11.8	0
14	45270	11.9	0
14	45270	12	0
14	45270	12.1	0
14	45270	12.2	0
14	45270	12.3	0
14	45270	12.4	0
14	45270	12.5	0
14	45270	12.6	0
14	45270	12.7	0
14	45270	12.8	0
14	45270	12.9	0
14	45270	13	0
14	45270	13.1	0
14	45270	13.2	0
14	45270	13.3	0
14	45270	13.4	0
14	45270	13.5	0
14	45270	13.6	0
14	45270	13.7	0
14	45270	13.8	0
14	45270	13.9	0
14	45270	14	0
14	45270	14.1	0
14	45270	14.2	0
14	45270	14.3	0
14	45270	14.4	0
14	45270	14.5	0
14	45270	14.6	0
14	45270	14.7	0
14	45270	14.8	0
14	45270	14.9	0
14	45270	15	0
14	45270	15.1	0
14	45270	15.2	0
14	45270	15.3	0
14	45270	15.4	0
14	45270	15.5	0
14	45270	15.6	0
14	45270	15.7	0
14	45270	15.8	0
14	45270	15.9	0
14	45270	16	0
14	45270	16.1	0
14	45270	16.2	0
14	45270	16.3	0
14	45270	16.4	0
14	45270	16.5	0
14	45270	16.6	0
14	45270	16.7	0
14	45270	16.8	0
14	45270	16.9	0
14	45270	17	0
14	45270	17.1	0
14	45270	17.2	0
14	45270	17.3	0
14	45270	17.4	0
14	45270	17.5	0
14	45270	17.6	0
14	45270	17.7	0
14	45270	17.8	0
14	45270	17.9	0
14	45270	18	0
14	45270	18.1	0
14	45270	18.2	0
14	45270	18.3	0
14	45270	18.4	0
14	45270	18.5	0
14	45270	18.6	0
14	45270	18.7	0
14	45270	18.8	0
14	45270	18.9	0
14	45270	19	0
14	45270	19.1	0
14	45270	19.2	0
14	45270	19.3	0
14	45270	19.4	0
14	45270	19.5	0
14	45270	19.6	0
14	45270	19.7	0
14	45270	19.8	0
14	45270	19.9	0
14	45270	20	0
14	45270	20.1	0
14	45270	20.2	0
14	45270	20.3	0
14	45270	20.4	0
14	45270	20.5	0
14	45270	20.6	0
14	45270	20.7	0
14	45270	20.8	0
14	45270	20.9	0
14	45270	21	0
14	45270	21.1	0
14	45270	21.2	0
14	45270	21.3	0
14	45270	21.4	0
14	45270	21.5	0
14	45270	21.6	0
14	45270	21.7	0
14	45270	21.8	0
14	45270	21.9	0
14	45270	22	0
14	45270	22.1	0
14	45270	22.2	0
14	45270	22.3	0
14	45270	22.4	0
14	45270	22.5	0
14	45270	22.6	0
14	45270	22.7	0
14	45270	22.8	0
14	45270	22.9	0
14	45270	23	0
14	45270	23.1	0
14	45270	23.2	0
14	45270	23.3	0
14	45270	23.4	0
14	45270	23.5	0
14	45270	23.6	0
14	45270	23.7	0
14	45270	23.8	0
14	45270	23.9	0
14	45270	24	0
14	45270	24.1	0
14	45270	24.2	0
14	45270	24.3	0
14	45270	24.4	0
14	45270	24.5	0
14	45270	24.6	0
14	45270	24.7	0
14	45270	24.8	0
14	45270	24.9	0
14	45270	25	0
14	45270	25.1	0
14	45270	25.2	0
14	45270	25.3	0
14	45270	25.4	0
14	45270	25.5	0
14	45270	25.6	0
14	45270	25.7	0
14	45270	25.8	0
14	45270	25.9	0
14	45270	26	0
14	45270	26.1	0
14	45270	26.2	0
14	45270	26.3	0
14	45270	26.4	0
14	45270	26.5	0
14	45270	26.6	0
14	45270	26.7	0
14	45270	26.8	0
14	45270	26.9	0
14	45270	27	0
14	45270	27.1	0
14	45270	27.2	0
14	45270	27.3	0
14	45270	27.4	0
14	45270	27.5	0
14	45270	27.6	0
14	45270	27.7	0
14	45270	27.8	0
14	45270	27.9	0
14	45270	28	0
14	45270	28.1	0
14	45270	28.2	0
14	45270	28.3	0
14	45270	28.4	0
14	45270	28.5	0
14	45270	28.6	0
14	45270	28.7	0
14	45270	28.8	0
14	45270	28.9	0
14	45270	29	0
14	45270	29.1	0
14	45270	29.2	0
14	45270	29.3	0
14	45270	29.4	0
14	45270	29.5	0
14	45270	29.6	0
14	45270	29.7	0
14	45270	29.8	0
14	45270	29.9	0
14	45270	30	0
14	45270	30.1	0
14	45270	30.2	0
14	45270	30.3	0
14	45270	30.4	0
14	45270	30.5	0
14	45270	30.6	0
14	45270	30.7	0
14	45270	30.8	0
14	45270	30.9	0
14	45270	31	0
14	45270	31.1	0
14	45270	31.2	0
14	45270	31.3	0
14	45270	31.4	0
14	45270	31.5	0
14	45270	31.6	0
14	45270	31.7	0
14	45270	31.8	0
14	45270	31.9	0
14	45270	32	0
14	45270	32.1	0
14	45270	32.2	0
14	45270	32.3	0
14	45270	32.4	0
14	45270	32.5	0
14	45270	32.6	0
14	45270	32.7	0
14	45270	32.8	0
14	45270	32.9	0
14	45270	33	0
14	45270	33.1	0
14	45270	33.2	0
14	45270	33.3	0
14	45270	33.4	0
14	45270	33.5	0
14	45270	33.6	0
14	45270	33.7	0
14	45270	33.8	0
14	45270	33.9	0
14	45270	34	0
14	45270	34.1	0
14	45270	34.2	0
14	45270	34.3	0
14	45270	34.4	0
14	45270	34.5	0
14	45270	34.6	0
14	45270	34.7	0
14	45270	34.8	0
14	45270	34.9	0
14	45270	35	0
14	45270	35.1	0
14	45270	35.2	0
14	45270	35.3	0
14	45270	35.4	0
14	45270	35.5	0
14	45270	35.6	0
14	45270	35.7	0
14	45270	35.8	0
14	45270	35.9	0
14	45270	36	0
14	45270	36.1	0
14	45270	36.2	0
14	45270	36.3	0
14	45270	36.4	0
14	45270	36.5	0
14	45270	36.6	0
14	45270	36.7	0
14	45270	36.8	0
14	45270	36.9	0
14	45270	37	0
14	45270	37.1	0
14	45270	37.2	0
14	45270	37.3	0
14	45270	37.4	0
14	45270	37.5	0
14	45270	37.6	0
14	45270	37.7	0
14	45270	37.8	0
14	45270	37.9	0
14	45270	38	0
14	45270	38.1	0
14	45270	38.2	0
14	45270	38.3	0
14	45270	38.4	0
14	45270	38.5	0
14	45270	38.6	0
14	45270	38.7	0
14	45270	38.8	0
14	45270	38.9	0
14	45270	39	0
14	45270	39.1	0
14	45270	39.2	0
14	45270	39.3	0
14	45270	39.4	0
14	45270	39.5	0
14	45270	39.6	0
14	45270	39.7	0
14	45270	39.8	0
14	45270	39.9	0
14	45270	40	0
14	45270	40.1	0
14	45270	40.2	0
14	45270	40.3	0
14	45270	40.4	0
14	45270	40.5	0
14	45270	40.6	0
14	45270	40.7	0
14	45270	40.8	0
14	45270	40.9	0
14	45270	41	0
14	45270	41.1	0
14	45270	41.2	0
14	45270	41.3	0
14	45270	41.4	0
14	45270	41.5	0
14	45270	41.6	0
14	45270	41.7	0
14	45270	41.8	0
14	45270	41.9	0
14	45270	42	0
14	45270	42.1	0
14	45270	42.2	0
14	45270	42.3	0
14	45270	42.4	0
14	45270	42.5	0
14	45270	42.6	0
14	45270	42.7	0
14	45270	42.8	0
14	45270	42.9	0
14	45270	43	0
14	45270	43.1	0
14	45270	43.2	0
14	45270	43.3	0
14	45270	43.4	0
14	45270	43.5	0
14	45270	43.6	0
14	45270	43.7	0
14	45270	43.8	0
14	45270	43.9	0
14	45270	44	0
14	45270	44.1	0
14	45270	44.2	0
14	45270	44.3	0
14	45270	44.4	0
14	45270	44.5	0
14	45270	44.6	0
14	45270	44.7	0
14	45270	44.8	0
14	45270	44.9	0
14	45270	45	0
14	45270	45.1	0
14	45270	45.2	0
14	45270	45.3	0
14	45270	45.4	0
14	45270	45.5	0
14	45270	45.6	0
14	45270	45.7	0
14	45270	45.8	0
14	45270	45.9	0
14	45270	46	0
14	45270	46.1	0
14	45270	46.2	0
14	45270	46.3	0
14	45270	46.4	0
14	45270	46.5	0
14	45270	46.6	0
14	45270	46.7	0
14	45270	46.8	0
14	45270	46.9	0
14	45270	47	0
14	45270	47.1	0
14	45270	47.2	0
14	45270	47.3	0
14	45270	47.4	0
14	45270	47.5	0
14	45270	47.6	0
14	45270	47.7	0
14	45270	47.8	0
14	45270	47.9	0
14	45270	48	0
14	45270	48.1	0
14	45270	48.2	0
14	45270	48.3	0
14	45270	48.4	0
14	45270	48.5	0
14	45270	48.6	0
14	45270	48.7	0
14	45270	48.8	0
14	45270	48.9	0
14	45270	49	0
14	45270	49.1	0
14	45270	49.2	0
14	45270	49.3	0
14	45270	49.4	0
14	45270	49.5	0
14	45270	49.6	0
14	45270	49.7	0
14	45270	49.8	0
14	45270	49.9	0
14	45270	50	0
14	45270	50.1	0
14	45270	50.2	0
14	45270	50.3	0
14	45270	50.4	0
14	45270	50.5	0
14	45270	50.6	0
14	45270	50.7	0
14	45270	50.8	0
14	45270	50.9	0
14	45270	51	0
14	45270	51.1	0
14	45270	51.2	0
14	45270	51.3	0
14	45270	51.4	0
14	45270	51.5	0
14	45270	51.6	0
14	45270	51.7	0
14	45270	51.8	0
14	45270	51.9	0
14	45270	52	0
14	45270	52.1	0
14	45270	52.2	0
14	45270	52.3	0
14	45270	52.4	0
14	45270	52.5	0
14	45270	52.6	0
14	45270	52.7	0
14	45270	52.8	0
14	45270	52.9	0
14	45270	53	0
14	45270	53.1	0
14	45270	53.2	0
14	45270	53.3	0
14	45270	53.4	0
14	45270	53.5	0
14	45270	53.6	0
14	45270	53.7	0
14	45270	53.8	0
14	45270	53.9	0
14	45270	54	0
14	45270	54.1	0
14	45270	54.2	0
14	45270	54.3	0
14	45270	54.4	0
14	45270	54.5	0
14	45270	54.6	0
14	45270	54.7	0
14	45270	54.8	0
14	45270	54.9	0
14	45270	55	0
14	45270	55.1	0
14	45270	55.2	0
14	45270	55.3	0
14	45270	55.4	0
14	45270	55.5	0
14	45270	55.6	0
14	45270	55.7	0
14	45270	55.8	0
14	45270	55.9	0
14	45270	56	0
14	45270	56.1	0
14	45270	56.2	0
14	45270	56.3	0
14	45270	56.4	0
14	45270	56.5	0
14	45270	56.6	0
14	45270	56.7	0
14	45270	56.8	0
14	45270	56.9	0
14	45270	57	0
14	45270	57.1	0
14	45270	57.2	0
14	45270	57.3	0
14	45270	57.4	0
14	45270	57.5	0
14	45270	57.6	0
14	45270	57.7	0
14	45270	57.8	0
14	45270	57.9	0
14	45270	58	0
14	45270	58.1	0
14	45270	58.2	0
14	45270	58.3	0
14	45270	58.4	0
14	45270	58.5	0
14	45270	58.6	0
14	45270	58.7	0
14	45270	58.8	0
14	45270	58.9	0
14	45270	59	0
14	45270	59.1	0
14	45270	59.2	0
14	45270	59.3	0
14	45270	59.4	0
14	45270	59.5	0
14	45270	59.6	0
14	45270	59.7	0
14	45270	59.8	0
14	45270	59.9	0
14	45270	60	0

