version 2
run Wireless10-0-20210206-16:49:46-20168
attr configname Wireless10
attr datetime 20210206-16:49:46
attr experiment Wireless10
attr inifile omnetpp.ini
attr iterationvars ""
attr iterationvarsf ""
attr measurement ""
attr network WirelessNetwork
attr processid 20168
attr repetition 0
attr replication #0
attr resultdir results
attr runnumber 0
attr seedset 0
param *.configurator.addStaticRoutes false
param *.host*.typename "\"AodvRouter\""
param *.hostB.wlan[0].radio.displayCommunicationRange true
param *.visualizer.dataLinkVisualizer.packetFilter "\"AODV*\""
param *.hostR*.mobility.typename "\"LinearMobility\""
param *.hostR*.mobility.speed 12mps
param *.hostR*.mobility.initialMovementHeading 270deg
param *.host*.wlan[0].mac.queue.packetCapacity 10
param *.visualizer.mobilityVisualizer.displayVelocities true
param *.visualizer.mobilityVisualizer.displayMovementTrails true
param *.host*.wlan[0].radio.energyConsumer.typename "\"StateBasedEpEnergyConsumer\""
param *.host*.wlan[0].radio.energyConsumer.offPowerConsumption 0mW
param *.host*.wlan[0].radio.energyConsumer.sleepPowerConsumption 1mW
param *.host*.wlan[0].radio.energyConsumer.switchingPowerConsumption 1mW
param *.host*.wlan[0].radio.energyConsumer.receiverIdlePowerConsumption 2mW
param *.host*.wlan[0].radio.energyConsumer.receiverBusyPowerConsumption 5mW
param *.host*.wlan[0].radio.energyConsumer.receiverReceivingPowerConsumption 10mW
param *.host*.wlan[0].radio.energyConsumer.transmitterIdlePowerConsumption 2mW
param *.host*.wlan[0].radio.energyConsumer.transmitterTransmittingPowerConsumption 100mW
param *.host*.energyStorage.typename "\"IdealEpEnergyStorage\""
param *.host*.wlan[0].radio.displayInterferenceRange false
param *.hostR1.wlan[0].radio.displayCommunicationRange false
param *.visualizer.mediumVisualizer.displaySignals false
param *.host*.wlan[0].mac.useAck true
param *.host*.wlan[0].typename "\"WirelessInterface\""
param *.host*.wlan[0].radio.typename "\"UnitDiskRadio\""
param *.host*.wlan[0].mac.typename "\"CsmaCaMac\""
param *.host*.wlan[0].mac.ackTimeout 300us
param *.host*.wlan[0].radio.receiver.ignoreInterference false
param *.host*.wlan[0].radio.transmitter.interferenceRange 250m
param *.hostA.wlan[0].radio.displayInterferenceRange true
param *.visualizer.dataLinkVisualizer.packetFilter "\"\""
param *.host*.forwarding true
param *.configurator.config "xml(\"<config><interface hosts='**' address='10.0.0.x' netmask='255.255.255.0'/><autoroute metric='errorRate'/></config>\")"
param *.configurator.optimizeRoutes false
param *.host*.ipv4.routingTable.netmaskRoutes "\"\""
param *.visualizer.physicalLinkVisualizer.displayLinks true
param *.visualizer.dataLinkVisualizer.displayLinks true
param *.visualizer.networkRouteVisualizer.displayRoutes true
param *.visualizer.*LinkVisualizer.lineShift 0
param *.visualizer.networkRouteVisualizer.lineShift 0
param *.visualizer.networkRouteVisualizer.packetFilter "\"UDPData*\""
param *.host*.wlan[0].radio.transmitter.communicationRange 250m
param *.hostR1.wlan[0].radio.displayCommunicationRange true
param *.hostA.wlan[0].radio.displayCommunicationRange true
param *.visualizer.sceneVisualizer.descriptionFigure "\"title\""
param *.visualizer.mediumVisualizer.displaySignals true
param *.visualizer.physicalLinkVisualizer.displayLinks true
param *.visualizer.physicalLinkVisualizer.packetFilter "\"UDPData*\""
param *.host*.ipv4.arp.typename "\"GlobalArp\""
param *.hostA.numApps 1
param *.hostA.app[0].typename "\"UdpBasicApp\""
param *.hostA.app[0].destAddresses "\"hostB\""
param *.hostA.app[0].destPort 5000
param *.hostA.app[0].messageLength 1000B
param *.hostA.app[0].sendInterval exponential(12ms)
param *.hostA.app[0].packetName "\"UDPData\""
param *.hostB.numApps 1
param *.hostB.app[0].typename "\"UdpSink\""
param *.hostB.app[0].localPort 5000
param *.host*.wlan[0].typename "\"AckingWirelessInterface\""
param *.host*.wlan[0].mac.useAck false
param *.host*.wlan[0].mac.fullDuplex false
param *.host*.wlan[0].radio.transmitter.communicationRange 500m
param *.hostA.wlan[0].radio.displayCommunicationRange true
param *.host*.wlan[0].radio.receiver.ignoreInterference true
param *.host*.wlan[0].mac.headerLength 23B
param *.host*.**.bitrate 1Mbps

vector 0 WirelessNetwork.hostA.energyStorage powerConsumption:vector ETV
attr interpolationmode sample-hold
attr source powerConsumptionChanged
attr title "Power consumption, vector"
vector 1 WirelessNetwork.hostB.energyStorage powerConsumption:vector ETV
attr interpolationmode sample-hold
attr source powerConsumptionChanged
attr title "Power consumption, vector"
vector 2 WirelessNetwork.hostA.wlan[0].radio radioMode:vector ETV
attr interpolationmode sample-hold
attr source radioModeChanged
attr title "Radio mode, vector"
vector 3 WirelessNetwork.hostA.wlan[0].radio.energyConsumer powerConsumption:vector ETV
attr interpolationmode sample-hold
attr source powerConsumptionChanged
attr title "Power consumption, vector"
vector 4 WirelessNetwork.hostB.wlan[0].radio radioMode:vector ETV
attr interpolationmode sample-hold
attr source radioModeChanged
attr title "Radio mode, vector"
vector 5 WirelessNetwork.hostB.wlan[0].radio.energyConsumer powerConsumption:vector ETV
attr interpolationmode sample-hold
attr source powerConsumptionChanged
attr title "Power consumption, vector"
vector 6 WirelessNetwork.hostA.wlan[0].radio receptionState:vector ETV
attr interpolationmode sample-hold
attr source receptionStateChanged
attr title "Radio reception state, vector"
vector 7 WirelessNetwork.hostB.wlan[0].radio receptionState:vector ETV
attr interpolationmode sample-hold
attr source receptionStateChanged
attr title "Radio reception state, vector"
0	0	0	0
0	0	0	0
0	0	0	0
0	0	0	0
0	0	0	0.002
1	0	0	0
1	0	0	0
1	0	0	0
1	0	0	0
1	0	0	0.002
2	0	0	0
2	0	0	0
2	0	0	2
3	0	0	0
3	0	0	0
3	0	0	0
3	0	0	0.002
4	0	0	0
4	0	0	0
4	0	0	2
5	0	0	0
5	0	0	0
5	0	0	0
5	0	0	0.002
6	0	0	1
7	0	0	1
vector 8 WirelessNetwork.hostA.app[0] packetSent:vector(packetBytes) ETV
attr interpolationmode none
attr source packetSent
attr title "packets sent, vector(packetBytes)"
vector 9 WirelessNetwork.hostA.udp packetSent:vector(packetBytes) ETV
attr interpolationmode none
attr source packetSent
attr title "packets sent, vector(packetBytes)"
vector 10 WirelessNetwork.hostA.wlan[0].mac.queue packetPushed:vector(packetBytes) ETV
attr interpolationmode none
attr title "packet pushed, vector(packetBytes)"
vector 11 WirelessNetwork.hostA.wlan[0].mac.queue queueLength:vector ETV
attr interpolationmode sample-hold
attr source "count(packetPushed) - count(packetPopped) - count(packetRemoved) - count(packetDropped)"
attr title "queue length, vector"
vector 12 WirelessNetwork.hostA.wlan[0].mac.queue packetPopped:vector(packetBytes) ETV
attr interpolationmode none
attr title "packet popped, vector(packetBytes)"
vector 13 WirelessNetwork.hostA.wlan[0].mac.queue queueingTime:vector ETV
attr interpolationmode none
attr source queueingTime(packetPopped)
attr title "queueing times, vector"
attr unit s
vector 14 WirelessNetwork.hostA.energyStorage residualEnergyCapacity:vector ETV
attr interpolationmode linear
attr source residualEnergyCapacityChanged
attr title "Residual energy capacity, vector"
vector 15 WirelessNetwork.hostA.wlan[0].radio transmissionState:vector ETV
attr interpolationmode sample-hold
attr source transmissionStateChanged
attr title "Radio transmission state, vector"
0	17	0.025903069027	0
0	17	0.025903069027	0
0	17	0.025903069027	0.002
0	18	0.025903069027	0
0	18	0.025903069027	0.1
0	20	0.026631069027	0.002
0	20	0.026631069027	0
0	20	0.026631069027	0.002
0	20	0.026631069027	0.002
0	20	0.026631069027	0.002
0	89	0.345455349501	0
0	89	0.345455349501	0
0	89	0.345455349501	0.002
0	90	0.345455349501	0
0	90	0.345455349501	0.1
0	92	0.346183349501	0.002
0	92	0.346183349501	0
0	92	0.346183349501	0.002
0	92	0.346183349501	0.002
0	92	0.346183349501	0.002
2	17	0.025903069027	3
2	20	0.026631069027	2
2	89	0.345455349501	3
2	92	0.346183349501	2
3	17	0.025903069027	0
3	17	0.025903069027	0
3	17	0.025903069027	0.002
3	18	0.025903069027	0
3	18	0.025903069027	0.1
3	20	0.026631069027	0.002
3	20	0.026631069027	0
3	20	0.026631069027	0.002
3	20	0.026631069027	0.002
3	20	0.026631069027	0.002
3	89	0.345455349501	0
3	89	0.345455349501	0
3	89	0.345455349501	0.002
3	90	0.345455349501	0
3	90	0.345455349501	0.1
3	92	0.346183349501	0.002
3	92	0.346183349501	0
3	92	0.346183349501	0.002
3	92	0.346183349501	0.002
3	92	0.346183349501	0.002
6	17	0.025903069027	0
6	20	0.026631069027	1
6	89	0.345455349501	0
6	92	0.346183349501	1
8	8	0.022315250545	1000
8	22	0.028927832385	1000
8	25	0.035834062748	1000
8	29	0.062516355812	1000
8	32	0.102295303171	1000
8	35	0.10809852843	1000
8	38	0.126925281841	1000
8	41	0.135957371201	1000
8	44	0.146030565436	1000
8	47	0.177209614466	1000
8	50	0.178093838732	1000
8	53	0.179187771045	1000
8	56	0.179432878106	1000
8	59	0.200882730067	1000
8	62	0.218952141171	1000
8	65	0.243435912266	1000
8	68	0.289578574696	1000
8	71	0.308841449381	1000
8	74	0.316268602897	1000
8	77	0.334467034585	1000
8	80	0.335977527498	1000
8	94	0.34823470999	1000
8	98	0.382967755726	1000
8	101	0.391821683227	1000
8	104	0.39824847187	1000
8	107	0.401935836096	1000
8	110	0.419794894005	1000
8	113	0.427103883083	1000
8	116	0.43718789955	1000
8	119	0.43741552238	1000
8	122	0.448952093649	1000
8	125	0.460316053775	1000
8	128	0.471830629503	1000
8	131	0.506365609758	1000
8	134	0.520107277214	1000
8	137	0.525453499155	1000
8	140	0.532347888036	1000
8	143	0.546701181629	1000
8	146	0.547446565115	1000
8	149	0.560633514726	1000
8	152	0.573960684074	1000
8	155	0.576795164547	1000
8	158	0.578451508808	1000
9	10	0.022315250545	1008
9	13	0.025433069027	32
9	23	0.028927832385	1008
9	26	0.035834062748	1008
9	30	0.062516355812	1008
9	33	0.102295303171	1008
9	36	0.10809852843	1008
9	39	0.126925281841	1008
9	42	0.135957371201	1008
9	45	0.146030565436	1008
9	48	0.177209614466	1008
9	51	0.178093838732	1008
9	54	0.179187771045	1008
9	57	0.179432878106	1008
9	60	0.200882730067	1008
9	63	0.218952141171	1008
9	66	0.243435912266	1008
9	69	0.289578574696	1008
9	72	0.308841449381	1008
9	75	0.316268602897	1008
9	78	0.334467034585	1008
9	81	0.335977527498	1008
9	85	0.345225349501	32
9	95	0.34823470999	1008
9	99	0.382967755726	1008
9	102	0.391821683227	1008
9	105	0.39824847187	1008
9	108	0.401935836096	1008
9	111	0.419794894005	1008
9	114	0.427103883083	1008
9	117	0.43718789955	1008
9	120	0.43741552238	1008
9	123	0.448952093649	1008
9	126	0.460316053775	1008
9	129	0.471830629503	1008
9	132	0.506365609758	1008
9	135	0.520107277214	1008
9	138	0.525453499155	1008
9	141	0.532347888036	1008
9	144	0.546701181629	1008
9	147	0.547446565115	1008
9	150	0.560633514726	1008
9	153	0.573960684074	1008
9	156	0.576795164547	1008
9	159	0.578451508808	1008
10	15	0.025433069027	79
10	87	0.345225349501	79
11	15	0.025433069027	1
11	15	0.025433069027	0
11	87	0.345225349501	1
11	87	0.345225349501	0
12	15	0.025433069027	79
12	87	0.345225349501	79
13	15	0.025433069027	0
13	87	0.345225349501	0
14	17	0.025903069027	-5.1806138054e-005
14	20	0.026631069027	-0.000124606138054
14	89	0.345455349501	-0.000762254699002
14	92	0.346183349501	-0.000835054699002
15	17	0.025903069027	1
15	18	0.025903069027	2
15	20	0.026631069027	1
15	20	0.026631069027	0
15	89	0.345455349501	1
15	90	0.345455349501	2
15	92	0.346183349501	1
15	92	0.346183349501	0
vector 16 WirelessNetwork.hostA.app[0] throughput:vector ETV
attr source throughput(packetReceived)
attr title "throughput, vector"
attr unit bps
vector 17 WirelessNetwork.hostB.app[0] throughput:vector ETV
attr source throughput(packetReceived)
attr title "throughput, vector"
attr unit bps
0	239	0.82278382401	0
0	239	0.82278382401	0
0	239	0.82278382401	0.002
0	240	0.82278382401	0
0	240	0.82278382401	0.1
0	242	0.82351182401	0.002
0	242	0.82351182401	0
0	242	0.82351182401	0.002
0	242	0.82351182401	0.002
0	242	0.82351182401	0.002
0	424	1.464582561675	0
0	424	1.464582561675	0
0	424	1.464582561675	0.002
0	425	1.464582561675	0
0	425	1.464582561675	0.1
0	427	1.465310561675	0.002
0	427	1.465310561675	0
0	427	1.465310561675	0.002
0	427	1.465310561675	0.002
0	427	1.465310561675	0.002
0	1192	4.423072593978	0
0	1192	4.423072593978	0
0	1192	4.423072593978	0.002
0	1193	4.423072593978	0
0	1193	4.423072593978	0.1
0	1195	4.423800593978	0.002
0	1195	4.423800593978	0
0	1195	4.423800593978	0.002
0	1195	4.423800593978	0.002
0	1195	4.423800593978	0.002
0	1921	7.387768408682	0
0	1921	7.387768408682	0
0	1921	7.387768408682	0.002
0	1922	7.387768408682	0
0	1922	7.387768408682	0.1
0	1924	7.388496408682	0.002
0	1924	7.388496408682	0
0	1924	7.388496408682	0.002
0	1924	7.388496408682	0.002
0	1924	7.388496408682	0.002
0	2683	10.346470906231	0
0	2683	10.346470906231	0
0	2683	10.346470906231	0.002
0	2684	10.346470906231	0
0	2684	10.346470906231	0.1
0	2686	10.347198906231	0.002
0	2686	10.347198906231	0
0	2686	10.347198906231	0.002
0	2686	10.347198906231	0.002
0	2686	10.347198906231	0.002
0	2776	10.665365271752	0
0	2776	10.665365271752	0
0	2776	10.665365271752	0.002
0	2777	10.665365271752	0
0	2777	10.665365271752	0.1
0	2779	10.666093271752	0.002
0	2779	10.666093271752	0
0	2779	10.666093271752	0.002
0	2779	10.666093271752	0.002
0	2779	10.666093271752	0.002
0	2913	11.143604291044	0
0	2913	11.143604291044	0
0	2913	11.143604291044	0.002
0	2914	11.143604291044	0
0	2914	11.143604291044	0.1
0	2916	11.144332291044	0.002
0	2916	11.144332291044	0
0	2916	11.144332291044	0.002
0	2916	11.144332291044	0.002
0	2916	11.144332291044	0.002
0	3069	11.785315760654	0
0	3069	11.785315760654	0
0	3069	11.785315760654	0.002
0	3070	11.785315760654	0
0	3070	11.785315760654	0.1
0	3072	11.786043760654	0.002
0	3072	11.786043760654	0
0	3072	11.786043760654	0.002
0	3072	11.786043760654	0.002
0	3072	11.786043760654	0.002
0	3786	14.74298508522	0
0	3786	14.74298508522	0
0	3786	14.74298508522	0.002
0	3787	14.74298508522	0
0	3787	14.74298508522	0.1
0	3789	14.74371308522	0.002
0	3789	14.74371308522	0
0	3789	14.74371308522	0.002
0	3789	14.74371308522	0.002
0	3789	14.74371308522	0.002
0	4488	17.705864911094	0
0	4488	17.705864911094	0
0	4488	17.705864911094	0.002
0	4489	17.705864911094	0
0	4489	17.705864911094	0.1
0	4491	17.706592911094	0.002
0	4491	17.706592911094	0
0	4491	17.706592911094	0.002
0	4491	17.706592911094	0.002
0	4491	17.706592911094	0.002
0	5148	20.667645046852	0
0	5148	20.667645046852	0
0	5148	20.667645046852	0.002
0	5149	20.667645046852	0
0	5149	20.667645046852	0.1
0	5151	20.668373046852	0.002
0	5151	20.668373046852	0
0	5151	20.668373046852	0.002
0	5151	20.668373046852	0.002
0	5151	20.668373046852	0.002
0	5238	20.986320953048	0
0	5238	20.986320953048	0
0	5238	20.986320953048	0.002
0	5239	20.986320953048	0
0	5239	20.986320953048	0.1
0	5241	20.987048953048	0.002
0	5241	20.987048953048	0
0	5241	20.987048953048	0.002
0	5241	20.987048953048	0.002
0	5241	20.987048953048	0.002
0	5396	21.46344070185	0
0	5396	21.46344070185	0
0	5396	21.46344070185	0.002
0	5397	21.46344070185	0
0	5397	21.46344070185	0.1
0	5399	21.46416870185	0.002
0	5399	21.46416870185	0
0	5399	21.46416870185	0.002
0	5399	21.46416870185	0.002
0	5399	21.46416870185	0.002
0	5569	22.107370978834	0
0	5569	22.107370978834	0
0	5569	22.107370978834	0.002
0	5570	22.107370978834	0
0	5570	22.107370978834	0.1
0	5572	22.108098978834	0.002
0	5572	22.108098978834	0
0	5572	22.108098978834	0.002
0	5572	22.108098978834	0.002
0	5572	22.108098978834	0.002
0	6334	25.066306682328	0
0	6334	25.066306682328	0
0	6334	25.066306682328	0.002
0	6335	25.066306682328	0
0	6335	25.066306682328	0.1
0	6337	25.067034682328	0.002
0	6337	25.067034682328	0
0	6337	25.067034682328	0.002
0	6337	25.067034682328	0.002
0	6337	25.067034682328	0.002
0	7060	28.024664631055	0
0	7060	28.024664631055	0
0	7060	28.024664631055	0.002
0	7061	28.024664631055	0
0	7061	28.024664631055	0.1
0	7063	28.025392631055	0.002
0	7063	28.025392631055	0
0	7063	28.025392631055	0.002
0	7063	28.025392631055	0.002
0	7063	28.025392631055	0.002
0	7826	30.999348402898	0
0	7826	30.999348402898	0
0	7826	30.999348402898	0.002
0	7827	30.999348402898	0
0	7827	30.999348402898	0.1
0	7831	31.000076402898	0.002
0	7831	31.000076402898	0
0	7831	31.000076402898	0.002
0	7831	31.000076402898	0.002
0	7831	31.000076402898	0.002
0	7894	31.31718116317	0
0	7894	31.31718116317	0
0	7894	31.31718116317	0.002
0	7895	31.31718116317	0
0	7895	31.31718116317	0.1
0	7897	31.31790916317	0.002
0	7897	31.31790916317	0
0	7897	31.31790916317	0.002
0	7897	31.31790916317	0.002
0	7897	31.31790916317	0.002
0	8026	31.797080072621	0
0	8026	31.797080072621	0
0	8026	31.797080072621	0.002
0	8027	31.797080072621	0
0	8027	31.797080072621	0.1
0	8029	31.797808072621	0.002
0	8029	31.797808072621	0
0	8029	31.797808072621	0.002
0	8029	31.797808072621	0.002
0	8029	31.797808072621	0.002
0	8181	32.439962490098	0
0	8181	32.439962490098	0
0	8181	32.439962490098	0.002
0	8182	32.439962490098	0
0	8182	32.439962490098	0.1
0	8184	32.440690490098	0.002
0	8184	32.440690490098	0
0	8184	32.440690490098	0.002
0	8184	32.440690490098	0.002
0	8184	32.440690490098	0.002
0	8922	35.396472231096	0
0	8922	35.396472231096	0
0	8922	35.396472231096	0.002
0	8923	35.396472231096	0
0	8923	35.396472231096	0.1
0	8925	35.397200231096	0.002
0	8925	35.397200231096	0
0	8925	35.397200231096	0.002
0	8925	35.397200231096	0.002
0	8925	35.397200231096	0.002
0	9684	38.355906414444	0
0	9684	38.355906414444	0
0	9684	38.355906414444	0.002
0	9685	38.355906414444	0
0	9685	38.355906414444	0.1
0	9687	38.356634414444	0.002
0	9687	38.356634414444	0
0	9687	38.356634414444	0.002
0	9687	38.356634414444	0.002
0	9687	38.356634414444	0.002
0	10395	41.361056029015	0
0	10395	41.361056029015	0
0	10395	41.361056029015	0.002
0	10396	41.361056029015	0
0	10396	41.361056029015	0.1
0	10398	41.361784029015	0.002
0	10398	41.361784029015	0
0	10398	41.361784029015	0.002
0	10398	41.361784029015	0.002
0	10398	41.361784029015	0.002
0	10482	41.682740482265	0
0	10482	41.682740482265	0
0	10482	41.682740482265	0.002
0	10483	41.682740482265	0
0	10483	41.682740482265	0.1
0	10485	41.683468482265	0.002
0	10485	41.683468482265	0
0	10485	41.683468482265	0.002
0	10485	41.683468482265	0.002
0	10485	41.683468482265	0.002
0	10616	42.162498275806	0
0	10616	42.162498275806	0
0	10616	42.162498275806	0.002
0	10617	42.162498275806	0
0	10617	42.162498275806	0.1
0	10619	42.163226275806	0.002
0	10619	42.163226275806	0
0	10619	42.163226275806	0.002
0	10619	42.163226275806	0.002
0	10619	42.163226275806	0.002
0	10802	42.801543848598	0
0	10802	42.801543848598	0
0	10802	42.801543848598	0.002
0	10803	42.801543848598	0
0	10803	42.801543848598	0.1
0	10805	42.802271848598	0.002
0	10805	42.802271848598	0
0	10805	42.802271848598	0.002
0	10805	42.802271848598	0.002
0	10805	42.802271848598	0.002
0	11636	45.762113271965	0
0	11636	45.762113271965	0
0	11636	45.762113271965	0.002
0	11637	45.762113271965	0
0	11637	45.762113271965	0.1
0	11639	45.762841271965	0.002
0	11639	45.762841271965	0
0	11639	45.762841271965	0.002
0	11639	45.762841271965	0.002
0	11639	45.762841271965	0.002
0	12518	48.722926700184	0
0	12518	48.722926700184	0
0	12518	48.722926700184	0.002
0	12519	48.722926700184	0
0	12519	48.722926700184	0.1
0	12521	48.723654700184	0.002
0	12521	48.723654700184	0
0	12521	48.723654700184	0.002
0	12521	48.723654700184	0.002
0	12521	48.723654700184	0.002
0	13292	51.702130670149	0
0	13292	51.702130670149	0
0	13292	51.702130670149	0.002
0	13293	51.702130670149	0
0	13293	51.702130670149	0.1
0	13295	51.702858670149	0.002
0	13295	51.702858670149	0
0	13295	51.702858670149	0.002
0	13295	51.702858670149	0.002
0	13295	51.702858670149	0.002
0	13390	52.021456226365	0
0	13390	52.021456226365	0
0	13390	52.021456226365	0.002
0	13391	52.021456226365	0
0	13391	52.021456226365	0.1
0	13393	52.022184226365	0.002
0	13393	52.022184226365	0
0	13393	52.022184226365	0.002
0	13393	52.022184226365	0.002
0	13393	52.022184226365	0.002
0	13531	52.501088570496	0
0	13531	52.501088570496	0
0	13531	52.501088570496	0.002
0	13532	52.501088570496	0
0	13532	52.501088570496	0.1
0	13534	52.501816570496	0.002
0	13534	52.501816570496	0
0	13534	52.501816570496	0.002
0	13534	52.501816570496	0.002
0	13534	52.501816570496	0.002
0	13758	53.139637624154	0
0	13758	53.139637624154	0
0	13758	53.139637624154	0.002
0	13759	53.139637624154	0
0	13759	53.139637624154	0.1
0	13761	53.140365624154	0.002
0	13761	53.140365624154	0
0	13761	53.140365624154	0.002
0	13761	53.140365624154	0.002
0	13761	53.140365624154	0.002
0	14583	56.101961230184	0
0	14583	56.101961230184	0
0	14583	56.101961230184	0.002
0	14584	56.101961230184	0
0	14584	56.101961230184	0.1
0	14586	56.102689230184	0.002
0	14586	56.102689230184	0
0	14586	56.102689230184	0.002
0	14586	56.102689230184	0.002
0	14586	56.102689230184	0.002
0	15378	59.061944433945	0
0	15378	59.061944433945	0
0	15378	59.061944433945	0.002
0	15379	59.061944433945	0
0	15379	59.061944433945	0.1
0	15381	59.062672433945	0.002
0	15381	59.062672433945	0
0	15381	59.062672433945	0.002
0	15381	59.062672433945	0.002
0	15381	59.062672433945	0.002
2	239	0.82278382401	3
2	242	0.82351182401	2
2	424	1.464582561675	3
2	427	1.465310561675	2
2	1192	4.423072593978	3
2	1195	4.423800593978	2
2	1921	7.387768408682	3
2	1924	7.388496408682	2
2	2683	10.346470906231	3
2	2686	10.347198906231	2
2	2776	10.665365271752	3
2	2779	10.666093271752	2
2	2913	11.143604291044	3
2	2916	11.144332291044	2
2	3069	11.785315760654	3
2	3072	11.786043760654	2
2	3786	14.74298508522	3
2	3789	14.74371308522	2
2	4488	17.705864911094	3
2	4491	17.706592911094	2
2	5148	20.667645046852	3
2	5151	20.668373046852	2
2	5238	20.986320953048	3
2	5241	20.987048953048	2
2	5396	21.46344070185	3
2	5399	21.46416870185	2
2	5569	22.107370978834	3
2	5572	22.108098978834	2
2	6334	25.066306682328	3
2	6337	25.067034682328	2
2	7060	28.024664631055	3
2	7063	28.025392631055	2
2	7826	30.999348402898	3
2	7831	31.000076402898	2
2	7894	31.31718116317	3
2	7897	31.31790916317	2
2	8026	31.797080072621	3
2	8029	31.797808072621	2
2	8181	32.439962490098	3
2	8184	32.440690490098	2
2	8922	35.396472231096	3
2	8925	35.397200231096	2
2	9684	38.355906414444	3
2	9687	38.356634414444	2
2	10395	41.361056029015	3
2	10398	41.361784029015	2
2	10482	41.682740482265	3
2	10485	41.683468482265	2
2	10616	42.162498275806	3
2	10619	42.163226275806	2
2	10802	42.801543848598	3
2	10805	42.802271848598	2
2	11636	45.762113271965	3
2	11639	45.762841271965	2
2	12518	48.722926700184	3
2	12521	48.723654700184	2
2	13292	51.702130670149	3
2	13295	51.702858670149	2
2	13390	52.021456226365	3
2	13393	52.022184226365	2
2	13531	52.501088570496	3
2	13534	52.501816570496	2
2	13758	53.139637624154	3
2	13761	53.140365624154	2
2	14583	56.101961230184	3
2	14586	56.102689230184	2
2	15378	59.061944433945	3
2	15381	59.062672433945	2
3	239	0.82278382401	0
3	239	0.82278382401	0
3	239	0.82278382401	0.002
3	240	0.82278382401	0
3	240	0.82278382401	0.1
3	242	0.82351182401	0.002
3	242	0.82351182401	0
3	242	0.82351182401	0.002
3	242	0.82351182401	0.002
3	242	0.82351182401	0.002
3	424	1.464582561675	0
3	424	1.464582561675	0
3	424	1.464582561675	0.002
3	425	1.464582561675	0
3	425	1.464582561675	0.1
3	427	1.465310561675	0.002
3	427	1.465310561675	0
3	427	1.465310561675	0.002
3	427	1.465310561675	0.002
3	427	1.465310561675	0.002
3	1192	4.423072593978	0
3	1192	4.423072593978	0
3	1192	4.423072593978	0.002
3	1193	4.423072593978	0
3	1193	4.423072593978	0.1
3	1195	4.423800593978	0.002
3	1195	4.423800593978	0
3	1195	4.423800593978	0.002
3	1195	4.423800593978	0.002
3	1195	4.423800593978	0.002
3	1921	7.387768408682	0
3	1921	7.387768408682	0
3	1921	7.387768408682	0.002
3	1922	7.387768408682	0
3	1922	7.387768408682	0.1
3	1924	7.388496408682	0.002
3	1924	7.388496408682	0
3	1924	7.388496408682	0.002
3	1924	7.388496408682	0.002
3	1924	7.388496408682	0.002
3	2683	10.346470906231	0
3	2683	10.346470906231	0
3	2683	10.346470906231	0.002
3	2684	10.346470906231	0
3	2684	10.346470906231	0.1
3	2686	10.347198906231	0.002
3	2686	10.347198906231	0
3	2686	10.347198906231	0.002
3	2686	10.347198906231	0.002
3	2686	10.347198906231	0.002
3	2776	10.665365271752	0
3	2776	10.665365271752	0
3	2776	10.665365271752	0.002
3	2777	10.665365271752	0
3	2777	10.665365271752	0.1
3	2779	10.666093271752	0.002
3	2779	10.666093271752	0
3	2779	10.666093271752	0.002
3	2779	10.666093271752	0.002
3	2779	10.666093271752	0.002
3	2913	11.143604291044	0
3	2913	11.143604291044	0
3	2913	11.143604291044	0.002
3	2914	11.143604291044	0
3	2914	11.143604291044	0.1
3	2916	11.144332291044	0.002
3	2916	11.144332291044	0
3	2916	11.144332291044	0.002
3	2916	11.144332291044	0.002
3	2916	11.144332291044	0.002
3	3069	11.785315760654	0
3	3069	11.785315760654	0
3	3069	11.785315760654	0.002
3	3070	11.785315760654	0
3	3070	11.785315760654	0.1
3	3072	11.786043760654	0.002
3	3072	11.786043760654	0
3	3072	11.786043760654	0.002
3	3072	11.786043760654	0.002
3	3072	11.786043760654	0.002
3	3786	14.74298508522	0
3	3786	14.74298508522	0
3	3786	14.74298508522	0.002
3	3787	14.74298508522	0
3	3787	14.74298508522	0.1
3	3789	14.74371308522	0.002
3	3789	14.74371308522	0
3	3789	14.74371308522	0.002
3	3789	14.74371308522	0.002
3	3789	14.74371308522	0.002
3	4488	17.705864911094	0
3	4488	17.705864911094	0
3	4488	17.705864911094	0.002
3	4489	17.705864911094	0
3	4489	17.705864911094	0.1
3	4491	17.706592911094	0.002
3	4491	17.706592911094	0
3	4491	17.706592911094	0.002
3	4491	17.706592911094	0.002
3	4491	17.706592911094	0.002
3	5148	20.667645046852	0
3	5148	20.667645046852	0
3	5148	20.667645046852	0.002
3	5149	20.667645046852	0
3	5149	20.667645046852	0.1
3	5151	20.668373046852	0.002
3	5151	20.668373046852	0
3	5151	20.668373046852	0.002
3	5151	20.668373046852	0.002
3	5151	20.668373046852	0.002
3	5238	20.986320953048	0
3	5238	20.986320953048	0
3	5238	20.986320953048	0.002
3	5239	20.986320953048	0
3	5239	20.986320953048	0.1
3	5241	20.987048953048	0.002
3	5241	20.987048953048	0
3	5241	20.987048953048	0.002
3	5241	20.987048953048	0.002
3	5241	20.987048953048	0.002
3	5396	21.46344070185	0
3	5396	21.46344070185	0
3	5396	21.46344070185	0.002
3	5397	21.46344070185	0
3	5397	21.46344070185	0.1
3	5399	21.46416870185	0.002
3	5399	21.46416870185	0
3	5399	21.46416870185	0.002
3	5399	21.46416870185	0.002
3	5399	21.46416870185	0.002
3	5569	22.107370978834	0
3	5569	22.107370978834	0
3	5569	22.107370978834	0.002
3	5570	22.107370978834	0
3	5570	22.107370978834	0.1
3	5572	22.108098978834	0.002
3	5572	22.108098978834	0
3	5572	22.108098978834	0.002
3	5572	22.108098978834	0.002
3	5572	22.108098978834	0.002
3	6334	25.066306682328	0
3	6334	25.066306682328	0
3	6334	25.066306682328	0.002
3	6335	25.066306682328	0
3	6335	25.066306682328	0.1
3	6337	25.067034682328	0.002
3	6337	25.067034682328	0
3	6337	25.067034682328	0.002
3	6337	25.067034682328	0.002
3	6337	25.067034682328	0.002
3	7060	28.024664631055	0
3	7060	28.024664631055	0
3	7060	28.024664631055	0.002
3	7061	28.024664631055	0
3	7061	28.024664631055	0.1
3	7063	28.025392631055	0.002
3	7063	28.025392631055	0
3	7063	28.025392631055	0.002
3	7063	28.025392631055	0.002
3	7063	28.025392631055	0.002
3	7826	30.999348402898	0
3	7826	30.999348402898	0
3	7826	30.999348402898	0.002
3	7827	30.999348402898	0
3	7827	30.999348402898	0.1
3	7831	31.000076402898	0.002
3	7831	31.000076402898	0
3	7831	31.000076402898	0.002
3	7831	31.000076402898	0.002
3	7831	31.000076402898	0.002
3	7894	31.31718116317	0
3	7894	31.31718116317	0
3	7894	31.31718116317	0.002
3	7895	31.31718116317	0
3	7895	31.31718116317	0.1
3	7897	31.31790916317	0.002
3	7897	31.31790916317	0
3	7897	31.31790916317	0.002
3	7897	31.31790916317	0.002
3	7897	31.31790916317	0.002
3	8026	31.797080072621	0
3	8026	31.797080072621	0
3	8026	31.797080072621	0.002
3	8027	31.797080072621	0
3	8027	31.797080072621	0.1
3	8029	31.797808072621	0.002
3	8029	31.797808072621	0
3	8029	31.797808072621	0.002
3	8029	31.797808072621	0.002
3	8029	31.797808072621	0.002
3	8181	32.439962490098	0
3	8181	32.439962490098	0
3	8181	32.439962490098	0.002
3	8182	32.439962490098	0
3	8182	32.439962490098	0.1
3	8184	32.440690490098	0.002
3	8184	32.440690490098	0
3	8184	32.440690490098	0.002
3	8184	32.440690490098	0.002
3	8184	32.440690490098	0.002
3	8922	35.396472231096	0
3	8922	35.396472231096	0
3	8922	35.396472231096	0.002
3	8923	35.396472231096	0
3	8923	35.396472231096	0.1
3	8925	35.397200231096	0.002
3	8925	35.397200231096	0
3	8925	35.397200231096	0.002
3	8925	35.397200231096	0.002
3	8925	35.397200231096	0.002
3	9684	38.355906414444	0
3	9684	38.355906414444	0
3	9684	38.355906414444	0.002
3	9685	38.355906414444	0
3	9685	38.355906414444	0.1
3	9687	38.356634414444	0.002
3	9687	38.356634414444	0
3	9687	38.356634414444	0.002
3	9687	38.356634414444	0.002
3	9687	38.356634414444	0.002
3	10395	41.361056029015	0
3	10395	41.361056029015	0
3	10395	41.361056029015	0.002
3	10396	41.361056029015	0
3	10396	41.361056029015	0.1
3	10398	41.361784029015	0.002
3	10398	41.361784029015	0
3	10398	41.361784029015	0.002
3	10398	41.361784029015	0.002
3	10398	41.361784029015	0.002
3	10482	41.682740482265	0
3	10482	41.682740482265	0
3	10482	41.682740482265	0.002
3	10483	41.682740482265	0
3	10483	41.682740482265	0.1
3	10485	41.683468482265	0.002
3	10485	41.683468482265	0
3	10485	41.683468482265	0.002
3	10485	41.683468482265	0.002
3	10485	41.683468482265	0.002
3	10616	42.162498275806	0
3	10616	42.162498275806	0
3	10616	42.162498275806	0.002
3	10617	42.162498275806	0
3	10617	42.162498275806	0.1
3	10619	42.163226275806	0.002
3	10619	42.163226275806	0
3	10619	42.163226275806	0.002
3	10619	42.163226275806	0.002
3	10619	42.163226275806	0.002
3	10802	42.801543848598	0
3	10802	42.801543848598	0
3	10802	42.801543848598	0.002
3	10803	42.801543848598	0
3	10803	42.801543848598	0.1
3	10805	42.802271848598	0.002
3	10805	42.802271848598	0
3	10805	42.802271848598	0.002
3	10805	42.802271848598	0.002
3	10805	42.802271848598	0.002
3	11636	45.762113271965	0
3	11636	45.762113271965	0
3	11636	45.762113271965	0.002
3	11637	45.762113271965	0
3	11637	45.762113271965	0.1
3	11639	45.762841271965	0.002
3	11639	45.762841271965	0
3	11639	45.762841271965	0.002
3	11639	45.762841271965	0.002
3	11639	45.762841271965	0.002
3	12518	48.722926700184	0
3	12518	48.722926700184	0
3	12518	48.722926700184	0.002
3	12519	48.722926700184	0
3	12519	48.722926700184	0.1
3	12521	48.723654700184	0.002
3	12521	48.723654700184	0
3	12521	48.723654700184	0.002
3	12521	48.723654700184	0.002
3	12521	48.723654700184	0.002
3	13292	51.702130670149	0
3	13292	51.702130670149	0
3	13292	51.702130670149	0.002
3	13293	51.702130670149	0
3	13293	51.702130670149	0.1
3	13295	51.702858670149	0.002
3	13295	51.702858670149	0
3	13295	51.702858670149	0.002
3	13295	51.702858670149	0.002
3	13295	51.702858670149	0.002
3	13390	52.021456226365	0
3	13390	52.021456226365	0
3	13390	52.021456226365	0.002
3	13391	52.021456226365	0
3	13391	52.021456226365	0.1
3	13393	52.022184226365	0.002
3	13393	52.022184226365	0
3	13393	52.022184226365	0.002
3	13393	52.022184226365	0.002
3	13393	52.022184226365	0.002
3	13531	52.501088570496	0
3	13531	52.501088570496	0
3	13531	52.501088570496	0.002
3	13532	52.501088570496	0
3	13532	52.501088570496	0.1
3	13534	52.501816570496	0.002
3	13534	52.501816570496	0
3	13534	52.501816570496	0.002
3	13534	52.501816570496	0.002
3	13534	52.501816570496	0.002
3	13758	53.139637624154	0
3	13758	53.139637624154	0
3	13758	53.139637624154	0.002
3	13759	53.139637624154	0
3	13759	53.139637624154	0.1
3	13761	53.140365624154	0.002
3	13761	53.140365624154	0
3	13761	53.140365624154	0.002
3	13761	53.140365624154	0.002
3	13761	53.140365624154	0.002
3	14583	56.101961230184	0
3	14583	56.101961230184	0
3	14583	56.101961230184	0.002
3	14584	56.101961230184	0
3	14584	56.101961230184	0.1
3	14586	56.102689230184	0.002
3	14586	56.102689230184	0
3	14586	56.102689230184	0.002
3	14586	56.102689230184	0.002
3	14586	56.102689230184	0.002
3	15378	59.061944433945	0
3	15378	59.061944433945	0
3	15378	59.061944433945	0.002
3	15379	59.061944433945	0
3	15379	59.061944433945	0.1
3	15381	59.062672433945	0.002
3	15381	59.062672433945	0
3	15381	59.062672433945	0.002
3	15381	59.062672433945	0.002
3	15381	59.062672433945	0.002
6	239	0.82278382401	0
6	242	0.82351182401	1
6	424	1.464582561675	0
6	427	1.465310561675	1
6	1192	4.423072593978	0
6	1195	4.423800593978	1
6	1921	7.387768408682	0
6	1924	7.388496408682	1
6	2683	10.346470906231	0
6	2686	10.347198906231	1
6	2776	10.665365271752	0
6	2779	10.666093271752	1
6	2913	11.143604291044	0
6	2916	11.144332291044	1
6	3069	11.785315760654	0
6	3072	11.786043760654	1
6	3786	14.74298508522	0
6	3789	14.74371308522	1
6	4488	17.705864911094	0
6	4491	17.706592911094	1
6	5148	20.667645046852	0
6	5151	20.668373046852	1
6	5238	20.986320953048	0
6	5241	20.987048953048	1
6	5396	21.46344070185	0
6	5399	21.46416870185	1
6	5569	22.107370978834	0
6	5572	22.108098978834	1
6	6334	25.066306682328	0
6	6337	25.067034682328	1
6	7060	28.024664631055	0
6	7063	28.025392631055	1
6	7826	30.999348402898	0
6	7831	31.000076402898	1
6	7894	31.31718116317	0
6	7897	31.31790916317	1
6	8026	31.797080072621	0
6	8029	31.797808072621	1
6	8181	32.439962490098	0
6	8184	32.440690490098	1
6	8922	35.396472231096	0
6	8925	35.397200231096	1
6	9684	38.355906414444	0
6	9687	38.356634414444	1
6	10395	41.361056029015	0
6	10398	41.361784029015	1
6	10482	41.682740482265	0
6	10485	41.683468482265	1
6	10616	42.162498275806	0
6	10619	42.163226275806	1
6	10802	42.801543848598	0
6	10805	42.802271848598	1
6	11636	45.762113271965	0
6	11639	45.762841271965	1
6	12518	48.722926700184	0
6	12521	48.723654700184	1
6	13292	51.702130670149	0
6	13295	51.702858670149	1
6	13390	52.021456226365	0
6	13393	52.022184226365	1
6	13531	52.501088570496	0
6	13534	52.501816570496	1
6	13758	53.139637624154	0
6	13761	53.140365624154	1
6	14583	56.101961230184	0
6	14586	56.102689230184	1
6	15378	59.061944433945	0
6	15381	59.062672433945	1
8	161	0.582999052379	1000
8	164	0.588424277102	1000
8	167	0.598557410624	1000
8	170	0.605485302354	1000
8	173	0.658939264508	1000
8	176	0.660230885806	1000
8	179	0.663042504031	1000
8	182	0.665153466576	1000
8	185	0.677858379157	1000
8	188	0.681363345556	1000
8	191	0.688898644528	1000
8	194	0.69226196863	1000
8	197	0.694339498104	1000
8	200	0.695742963022	1000
8	203	0.708559829388	1000
8	206	0.710344376619	1000
8	209	0.712970943777	1000
8	212	0.71849111127	1000
8	215	0.739135091163	1000
8	218	0.740360829741	1000
8	221	0.762198656772	1000
8	224	0.763411074076	1000
8	227	0.808399451591	1000
8	230	0.815987490748	1000
8	245	0.861130618162	1000
8	248	0.877261561428	1000
8	251	0.877741277017	1000
8	254	0.881730199909	1000
8	257	0.883266881093	1000
8	260	0.887480994166	1000
8	263	0.888997657803	1000
8	266	0.893590069189	1000
8	269	0.900008681698	1000
8	272	0.900804250516	1000
8	275	0.914954524841	1000
8	278	0.924987695225	1000
8	281	0.928688673306	1000
8	284	0.937577780711	1000
8	287	0.938761584412	1000
8	290	0.949056332105	1000
8	293	0.980847403249	1000
8	296	0.985450125818	1000
8	299	0.998660276739	1000
8	304	1.000356245302	1000
8	307	1.015475451023	1000
8	310	1.019575301027	1000
8	313	1.02200350629	1000
8	316	1.032601054794	1000
8	319	1.0328448043	1000
8	322	1.054033697169	1000
8	325	1.054090175655	1000
8	328	1.067681785359	1000
8	331	1.071458445289	1000
8	334	1.087403539774	1000
8	337	1.126705257907	1000
8	340	1.130137509577	1000
8	343	1.140438225191	1000
8	346	1.15119731564	1000
8	349	1.161387965379	1000
8	352	1.164417005294	1000
8	355	1.201044385177	1000
8	358	1.208155873506	1000
8	361	1.230637392064	1000
8	364	1.245064254871	1000
8	367	1.24930049647	1000
8	370	1.269471562925	1000
8	373	1.275531787898	1000
8	376	1.301085780651	1000
8	379	1.311532210567	1000
8	382	1.337150175967	1000
8	385	1.351302771171	1000
8	388	1.366805682397	1000
8	391	1.375155275928	1000
8	394	1.41266089622	1000
8	397	1.425054460348	1000
8	400	1.43167121223	1000
8	403	1.442860046795	1000
8	406	1.443092604171	1000
8	409	1.447399730761	1000
8	412	1.460351573145	1000
8	421	1.464462768641	1000
8	429	1.471182301482	1000
8	432	1.472929189223	1000
8	436	1.47717987881	1000
8	439	1.487306540481	1000
8	442	1.498031289421	1000
8	445	1.508280246249	1000
8	448	1.520988358874	1000
8	451	1.533658554178	1000
8	454	1.540433880191	1000
8	457	1.567657488103	1000
8	460	1.57315556271	1000
8	463	1.580025101327	1000
8	466	1.606724077214	1000
8	469	1.626414848149	1000
8	472	1.641019082093	1000
8	475	1.642286433817	1000
8	478	1.672517819378	1000
8	481	1.687549109677	1000
8	484	1.768733795916	1000
8	487	1.770676236957	1000
8	490	1.794987142762	1000
8	493	1.797115049664	1000
8	496	1.808586646751	1000
8	499	1.810172851266	1000
8	502	1.832779997905	1000
8	505	1.852540627121	1000
8	508	1.862643198662	1000
8	511	1.868917639023	1000
8	514	1.869777743635	1000
8	517	1.88412300643	1000
8	520	1.891374595292	1000
8	523	1.906738605738	1000
8	526	1.930891878572	1000
8	529	1.975411405675	1000
8	532	1.998650332525	1000
8	535	1.998791731308	1000
8	540	2.004146765154	1000
8	543	2.019858345522	1000
8	546	2.022117885225	1000
8	549	2.030951458425	1000
8	552	2.03162189906	1000
8	555	2.034299569557	1000
8	558	2.034523915202	1000
8	561	2.053464867867	1000
8	564	2.056506936329	1000
8	567	2.061590821545	1000
8	570	2.093177447896	1000
8	573	2.107803009536	1000
8	576	2.108191291192	1000
8	579	2.110350779291	1000
8	582	2.122008565188	1000
8	585	2.132339648828	1000
8	588	2.135599665672	1000
8	591	2.168255844743	1000
8	594	2.179677801234	1000
8	597	2.188882757089	1000
8	600	2.199579300012	1000
8	603	2.215296724468	1000
8	606	2.219783362419	1000
8	609	2.225877743891	1000
8	612	2.228704038772	1000
8	615	2.231176423354	1000
8	618	2.265845330457	1000
8	621	2.281989499656	1000
8	624	2.290080434492	1000
8	627	2.293176587659	1000
8	630	2.296698679482	1000
8	633	2.297416051037	1000
8	636	2.304254821821	1000
8	639	2.308738859354	1000
8	642	2.323041156598	1000
8	645	2.328734152082	1000
8	648	2.331109764906	1000
8	651	2.331409625146	1000
8	654	2.332245037199	1000
8	657	2.345895499265	1000
8	660	2.353150473885	1000
8	663	2.362379911498	1000
8	666	2.389617991687	1000
8	669	2.445293822003	1000
8	672	2.448227714268	1000
8	675	2.461282567471	1000
8	678	2.464949826293	1000
8	681	2.465200232916	1000
8	684	2.482244834383	1000
8	687	2.486873086712	1000
8	690	2.492676747362	1000
8	693	2.503326770504	1000
8	696	2.524664490546	1000
8	699	2.536562542061	1000
8	702	2.561292396952	1000
8	705	2.56512729281	1000
8	708	2.584323926112	1000
8	711	2.586788099337	1000
8	714	2.623426315372	1000
8	717	2.637383674773	1000
8	720	2.640296296697	1000
8	723	2.675630060026	1000
8	726	2.691380155942	1000
8	729	2.694895573444	1000
8	732	2.697774655677	1000
8	735	2.70653738766	1000
8	738	2.706849360602	1000
8	741	2.709639660823	1000
8	744	2.716273721271	1000
8	747	2.721897838983	1000
8	750	2.7293717907	1000
8	753	2.733274382916	1000
8	756	2.743879810788	1000
8	759	2.767808281203	1000
8	762	2.769308672282	1000
8	765	2.778050958395	1000
8	768	2.779750662813	1000
8	771	2.794892414895	1000
8	774	2.800943774094	1000
8	777	2.810944312982	1000
8	780	2.813373818146	1000
8	783	2.815251527391	1000
8	786	2.823286014481	1000
8	789	2.828559479167	1000
8	792	2.862407110548	1000
8	795	2.879801767865	1000
8	798	2.896373325013	1000
8	801	2.924459228541	1000
8	804	2.92550453154	1000
8	807	2.935145232692	1000
8	810	2.945683813637	1000
8	813	2.984905770447	1000
8	816	2.989052005452	1000
8	819	2.992358340696	1000
8	822	2.993626586785	1000
8	825	2.993825379918	1000
8	830	3.025656082104	1000
8	833	3.038956999155	1000
8	836	3.057410943729	1000
8	839	3.061381862303	1000
8	842	3.071976428842	1000
8	845	3.07276953297	1000
8	848	3.080747225965	1000
8	851	3.126275511362	1000
8	854	3.151374190233	1000
8	857	3.156326948634	1000
8	860	3.19543400036	1000
8	863	3.198596925714	1000
8	866	3.23438333382	1000
8	869	3.268423016141	1000
8	872	3.287688521298	1000
8	875	3.299634085018	1000
8	878	3.324519222575	1000
8	881	3.32868026222	1000
8	884	3.351361482597	1000
8	887	3.362905625716	1000
8	890	3.363065528654	1000
8	893	3.368183958398	1000
8	896	3.370107967532	1000
8	899	3.41820336339	1000
8	902	3.426012931498	1000
8	905	3.43426825324	1000
8	908	3.446510498295	1000
8	911	3.452027994108	1000
8	914	3.453794694556	1000
8	917	3.474514295113	1000
8	920	3.477040694571	1000
8	923	3.485633238387	1000
8	926	3.488681374927	1000
8	929	3.489916995292	1000
8	932	3.513699679385	1000
8	935	3.557006971445	1000
8	938	3.595886527048	1000
8	941	3.624331178015	1000
8	944	3.642180335067	1000
8	947	3.647042529655	1000
8	950	3.648057483556	1000
8	953	3.6543330954	1000
8	956	3.65750434097	1000
8	959	3.659209847107	1000
8	962	3.659868735578	1000
8	965	3.675386509884	1000
8	968	3.675524428887	1000
8	971	3.693190878783	1000
8	974	3.695098076939	1000
8	977	3.696092424214	1000
8	980	3.697218918781	1000
8	983	3.710597567844	1000
8	986	3.713975856114	1000
8	989	3.720523748691	1000
8	992	3.730303968662	1000
8	995	3.753944659449	1000
8	998	3.769526007076	1000
8	1001	3.773307927421	1000
8	1004	3.774999542034	1000
8	1007	3.775683140424	1000
8	1010	3.779990676245	1000
8	1013	3.783638334956	1000
8	1016	3.79094710842	1000
8	1019	3.804744005073	1000
8	1022	3.819017960089	1000
8	1025	3.82301880015	1000
8	1028	3.828753816	1000
8	1031	3.831152082455	1000
8	1034	3.849797028479	1000
8	1037	3.850499363266	1000
8	1040	3.864827523713	1000
8	1043	3.882926106493	1000
8	1046	3.900955060018	1000
8	1049	3.904558960981	1000
8	1052	3.91017623842	1000
8	1055	3.920805366172	1000
8	1058	3.924628372347	1000
8	1061	3.930189052677	1000
8	1064	3.932822670608	1000
8	1067	3.940213702013	1000
8	1070	3.940761358607	1000
8	1073	3.960062372796	1000
8	1076	3.961023319067	1000
8	1079	3.969801863137	1000
8	1082	3.974199278639	1000
8	1085	3.984539288541	1000
8	1090	4.022996994496	1000
8	1093	4.035443935625	1000
8	1096	4.035875969582	1000
8	1099	4.042629872004	1000
8	1102	4.051190483398	1000
8	1105	4.0604095235	1000
8	1108	4.074135068049	1000
8	1111	4.078037118495	1000
8	1114	4.079692557278	1000
8	1117	4.085676865272	1000
8	1120	4.123270819147	1000
8	1123	4.125757041334	1000
8	1126	4.153875920495	1000
8	1129	4.16329396473	1000
8	1132	4.17061975887	1000
8	1135	4.196268819155	1000
8	1138	4.203632069672	1000
8	1141	4.219087613373	1000
8	1144	4.225198043215	1000
8	1147	4.253324478905	1000
8	1150	4.267379643244	1000
8	1153	4.28181220865	1000
8	1156	4.28657718005	1000
8	1159	4.303542580004	1000
8	1162	4.315671809961	1000
8	1165	4.318965372225	1000
8	1168	4.321065312804	1000
8	1171	4.340163986278	1000
8	1174	4.378543045999	1000
8	1177	4.385895991337	1000
8	1180	4.396624008169	1000
8	1183	4.420023731111	1000
8	1197	4.427356421846	1000
8	1201	4.437645643077	1000
8	1204	4.458274474818	1000
8	1207	4.487016632291	1000
8	1210	4.507299451748	1000
8	1213	4.509383330507	1000
8	1216	4.521278684576	1000
8	1219	4.527377318025	1000
8	1222	4.528154506338	1000
8	1225	4.534774949689	1000
8	1228	4.538366890278	1000
8	1231	4.561055640131	1000
8	1234	4.561462102394	1000
8	1237	4.599787244866	1000
8	1240	4.605056168693	1000
8	1243	4.610350026422	1000
8	1246	4.61054758583	1000
8	1249	4.613005813036	1000
8	1252	4.619160936938	1000
8	1255	4.650951196085	1000
8	1258	4.652210389053	1000
8	1261	4.687081424297	1000
8	1264	4.711516954544	1000
8	1267	4.718782159924	1000
8	1270	4.723528947129	1000
8	1273	4.726708166381	1000
8	1276	4.73814563684	1000
8	1279	4.738549243891	1000
8	1282	4.738737993376	1000
8	1285	4.745458093856	1000
8	1288	4.746304117236	1000
8	1291	4.749787398217	1000
8	1294	4.752786808017	1000
8	1297	4.756290160878	1000
8	1300	4.757975869481	1000
8	1303	4.758121180422	1000
8	1306	4.75959376051	1000
8	1309	4.771156872865	1000
8	1312	4.815071618287	1000
8	1315	4.870754978238	1000
8	1318	4.877067347787	1000
8	1321	4.879201868881	1000
8	1324	4.891420479827	1000
8	1327	4.899507801158	1000
8	1330	4.95408168738	1000
8	1333	4.954892097263	1000
8	1336	4.973239363712	1000
8	1339	4.977322210347	1000
8	1342	4.980637872662	1000
8	1345	4.993672312396	1000
8	1348	4.99706167294	1000
8	1353	5.010215983672	1000
8	1356	5.018956514548	1000
8	1359	5.025578140008	1000
8	1362	5.03528589635	1000
8	1365	5.039346049774	1000
8	1368	5.054059636321	1000
8	1371	5.060490421865	1000
8	1374	5.065856100696	1000
8	1377	5.087025149402	1000
8	1380	5.118103063148	1000
8	1383	5.118668254401	1000
8	1386	5.121845641681	1000
8	1389	5.126987732931	1000
8	1392	5.147234352396	1000
8	1395	5.198030541952	1000
8	1398	5.239704810423	1000
8	1401	5.26794482764	1000
8	1404	5.272166036265	1000
8	1407	5.330122679241	1000
8	1410	5.333565588386	1000
8	1413	5.33490892288	1000
8	1416	5.371088542146	1000
8	1419	5.374278340734	1000
8	1422	5.388323569494	1000
8	1425	5.389045109924	1000
8	1428	5.404788666897	1000
8	1431	5.430405095631	1000
8	1434	5.434221750173	1000
8	1437	5.439939940025	1000
8	1440	5.445566477893	1000
8	1443	5.462143986851	1000
8	1446	5.465402656351	1000
8	1449	5.467665433042	1000
8	1452	5.474824032045	1000
8	1455	5.479180978127	1000
8	1458	5.501111293341	1000
8	1461	5.504368932938	1000
8	1464	5.512744183524	1000
8	1467	5.547033287698	1000
8	1470	5.559094675481	1000
8	1473	5.58332968952	1000
8	1476	5.61713263028	1000
8	1479	5.633804932363	1000
8	1482	5.6482356205	1000
8	1485	5.689526949071	1000
8	1488	5.751748502147	1000
8	1491	5.758962357904	1000
8	1494	5.759844434433	1000
8	1497	5.764001634363	1000
8	1500	5.765985150511	1000
8	1503	5.772469982882	1000
8	1506	5.774158924747	1000
8	1509	5.785278587951	1000
8	1512	5.791069490533	1000
8	1515	5.818159212022	1000
8	1518	5.859386692732	1000
8	1521	5.868886001867	1000
8	1524	5.872742085501	1000
8	1527	5.88350672167	1000
8	1530	5.910755242959	1000
8	1533	5.917020578612	1000
8	1536	5.926658219875	1000
8	1539	5.930461948434	1000
8	1542	5.937755365603	1000
8	1545	5.943919592962	1000
8	1548	5.947346420008	1000
8	1551	5.955805811865	1000
8	1554	5.960265200923	1000
8	1557	5.965867573046	1000
8	1560	5.974800112183	1000
8	1563	5.991464239469	1000
8	1566	5.996332955595	1000
8	1571	6.027282313164	1000
8	1574	6.051076064127	1000
8	1577	6.051675051356	1000
8	1580	6.05518565857	1000
8	1583	6.062275681215	1000
8	1586	6.063601871734	1000
8	1589	6.068743164079	1000
8	1592	6.084912549963	1000
8	1595	6.098605069974	1000
8	1598	6.110291613072	1000
8	1601	6.125167990039	1000
8	1604	6.127919796099	1000
8	1607	6.132936896006	1000
8	1610	6.146470021209	1000
8	1613	6.171836902985	1000
8	1616	6.181251583348	1000
8	1619	6.185238710831	1000
8	1622	6.185607132107	1000
8	1625	6.200475570196	1000
8	1628	6.200570554354	1000
8	1631	6.206166118671	1000
8	1634	6.215240113644	1000
8	1637	6.245869831567	1000
8	1640	6.246994896218	1000
8	1643	6.253244242596	1000
8	1646	6.253539606325	1000
8	1649	6.258573358207	1000
8	1652	6.270255028731	1000
8	1655	6.274181553307	1000
8	1658	6.277006423705	1000
8	1661	6.278481974508	1000
8	1664	6.288810550998	1000
8	1667	6.303070500921	1000
8	1670	6.316445832957	1000
8	1673	6.352124333031	1000
8	1676	6.352156815526	1000
8	1679	6.364658949104	1000
8	1682	6.375666210667	1000
8	1685	6.386328555215	1000
8	1688	6.425816341178	1000
8	1691	6.426020528663	1000
8	1694	6.440328317954	1000
8	1697	6.460491706755	1000
8	1700	6.469047184505	1000
8	1703	6.473924138906	1000
8	1706	6.492700017514	1000
8	1709	6.493927638886	1000
8	1712	6.500929160954	1000
8	1715	6.509735600558	1000
8	1718	6.523943933394	1000
8	1721	6.525087347188	1000
8	1724	6.528188858173	1000
8	1727	6.534526586062	1000
8	1730	6.546242090338	1000
8	1733	6.572402335704	1000
8	1736	6.583976332845	1000
8	1739	6.58569531729	1000
8	1742	6.632992821506	1000
8	1745	6.657641451312	1000
8	1748	6.666024694115	1000
8	1751	6.696690906715	1000
8	1754	6.706045327061	1000
8	1757	6.736860518605	1000
8	1760	6.758116758437	1000
8	1763	6.799528879989	1000
8	1766	6.829805089525	1000
8	1769	6.830245478368	1000
8	1772	6.832550625282	1000
8	1775	6.838465170502	1000
8	1778	6.874939549584	1000
8	1781	6.879220144616	1000
8	1784	6.881319067737	1000
8	1787	6.907409862623	1000
8	1790	6.91450549605	1000
8	1793	6.943120880169	1000
8	1796	6.945216413727	1000
8	1799	6.958201636341	1000
8	1802	6.965165111397	1000
8	1805	6.966119953258	1000
8	1808	6.980426980163	1000
8	1811	6.983837617085	1000
8	1814	6.984322676017	1000
8	1817	6.985064469801	1000
8	1820	6.985820751132	1000
8	1825	7.01441757041	1000
8	1828	7.030577097872	1000
8	1831	7.057977826285	1000
8	1834	7.071376049168	1000
8	1837	7.080409284992	1000
8	1840	7.084765850845	1000
8	1843	7.15911677227	1000
8	1846	7.164513332685	1000
8	1849	7.172146574137	1000
8	1852	7.177849087402	1000
8	1855	7.224512824075	1000
8	1858	7.226816318898	1000
8	1861	7.231586067857	1000
8	1864	7.245272361557	1000
8	1867	7.246055884705	1000
8	1870	7.257270849701	1000
8	1873	7.265063778423	1000
8	1876	7.26907267942	1000
8	1879	7.272340894136	1000
8	1882	7.281012120986	1000
8	1885	7.286517136618	1000
8	1888	7.293834282692	1000
8	1891	7.298774689626	1000
8	1894	7.341052505721	1000
8	1897	7.342771184979	1000
8	1900	7.343992972683	1000
8	1903	7.349040984752	1000
8	1906	7.35977025541	1000
8	1909	7.372686940923	1000
8	1912	7.378762108528	1000
8	1927	7.465563729962	1000
8	1930	7.480899755512	1000
8	1933	7.493079263012	1000
8	1936	7.513202479808	1000
8	1939	7.558072261544	1000
8	1942	7.58453707119	1000
8	1945	7.601892762056	1000
8	1948	7.61627057871	1000
8	1951	7.621175190561	1000
8	1954	7.623092787926	1000
8	1957	7.623868991188	1000
8	1960	7.627192297892	1000
8	1963	7.633985852512	1000
8	1966	7.642843493423	1000
8	1969	7.660641574319	1000
8	1972	7.698896184386	1000
8	1975	7.700393701493	1000
8	1978	7.701751781482	1000
8	1981	7.712442027105	1000
8	1984	7.728858675362	1000
8	1987	7.751477050732	1000
8	1990	7.784432073175	1000
8	1993	7.833631284687	1000
8	1996	7.839757226639	1000
8	1999	7.845500145492	1000
8	2002	7.847419476052	1000
8	2005	7.861279170455	1000
8	2008	7.874111143155	1000
8	2011	7.897882606708	1000
8	2014	7.899110428463	1000
8	2017	7.90737495859	1000
8	2020	7.917815917514	1000
8	2023	7.921133769723	1000
8	2026	7.923355642365	1000
8	2029	7.94691312184	1000
8	2032	7.947636938125	1000
8	2035	7.955269543778	1000
8	2038	7.956746869237	1000
8	2041	7.964075919335	1000
8	2046	8.010997608571	1000
8	2049	8.017611263951	1000
8	2052	8.040960678958	1000
8	2055	8.042458129226	1000
8	2058	8.04625525792	1000
8	2061	8.052461261045	1000
8	2064	8.058587411956	1000
8	2067	8.071941777695	1000
8	2070	8.077014055152	1000
8	2073	8.09202543908	1000
8	2076	8.104258181337	1000
8	2079	8.11037132346	1000
8	2082	8.117153863078	1000
8	2085	8.128593294253	1000
8	2088	8.12946468695	1000
8	2091	8.150203799426	1000
8	2094	8.162919538745	1000
8	2097	8.178470072543	1000
8	2100	8.187708415773	1000
8	2103	8.189113256245	1000
8	2106	8.195344300944	1000
8	2109	8.201582164283	1000
8	2112	8.20622853389	1000
8	2115	8.206593429815	1000
8	2118	8.222632250823	1000
8	2121	8.224027750824	1000
8	2124	8.235213991711	1000
8	2127	8.249791060214	1000
8	2130	8.261878332475	1000
8	2133	8.300250237564	1000
8	2136	8.301558619927	1000
8	2139	8.325782585046	1000
8	2142	8.326138082074	1000
8	2145	8.335324551061	1000
8	2148	8.341539632402	1000
8	2151	8.350452317398	1000
8	2154	8.355903768323	1000
8	2157	8.358440822423	1000
8	2160	8.358672519685	1000
8	2163	8.367433983928	1000
8	2166	8.389635054566	1000
8	2169	8.395240893284	1000
8	2172	8.398266569401	1000
8	2175	8.399274089881	1000
8	2178	8.400344142868	1000
8	2181	8.403347182233	1000
8	2184	8.404611695921	1000
8	2187	8.408306961468	1000
8	2190	8.409128227973	1000
8	2193	8.40994249851	1000
8	2196	8.433220839625	1000
8	2199	8.435343408098	1000
8	2202	8.445186516009	1000
8	2205	8.463004284898	1000
8	2208	8.470318995068	1000
8	2211	8.472316877395	1000
8	2214	8.474988543619	1000
8	2217	8.481796961055	1000
8	2220	8.490812229539	1000
8	2223	8.495971295972	1000
8	2226	8.514221806864	1000
8	2229	8.530906478791	1000
8	2232	8.562348897714	1000
8	2235	8.562701457081	1000
8	2238	8.58982626245	1000
8	2241	8.595808458433	1000
8	2244	8.621089963944	1000
8	2247	8.635174576678	1000
8	2250	8.687614573695	1000
8	2253	8.704704145883	1000
8	2256	8.710145106903	1000
8	2259	8.718488416275	1000
8	2262	8.724155161259	1000
8	2265	8.72960305862	1000
8	2268	8.733230996277	1000
8	2271	8.741452437212	1000
8	2274	8.755191074606	1000
8	2277	8.759088876262	1000
8	2280	8.768006504114	1000
8	2283	8.769504834408	1000
8	2286	8.771594865061	1000
8	2289	8.772170111456	1000
8	2292	8.814545008262	1000
8	2295	8.81459142214	1000
8	2298	8.816952070404	1000
8	2301	8.828339906565	1000
8	2304	8.829358363497	1000
8	2307	8.854992690613	1000
8	2310	8.870252010641	1000
8	2313	8.910967179217	1000
8	2316	8.919469612122	1000
8	2319	8.923756633665	1000
8	2322	8.933325415375	1000
8	2325	8.965377715057	1000
8	2328	8.974204396116	1000
8	2331	8.977935100873	1000
8	2336	9.003120922016	1000
8	2339	9.008701950941	1000
8	2342	9.008718562692	1000
8	2345	9.0121337649	1000
8	2348	9.016730581705	1000
8	2351	9.040219602412	1000
8	2354	9.047580619205	1000
8	2357	9.054637144945	1000
8	2360	9.059552670866	1000
8	2363	9.085063837705	1000
8	2366	9.119874746199	1000
8	2369	9.177651122196	1000
8	2372	9.183324644733	1000
8	2375	9.223953535568	1000
8	2378	9.242789195823	1000
8	2381	9.256301829395	1000
8	2384	9.259672523261	1000
8	2387	9.262599679299	1000
8	2390	9.264778629911	1000
8	2393	9.295508156888	1000
8	2396	9.299687140498	1000
8	2399	9.306928886007	1000
8	2402	9.315102509344	1000
8	2405	9.333172723061	1000
8	2408	9.35548560193	1000
8	2411	9.357282544429	1000
8	2414	9.363962976398	1000
8	2417	9.386170004157	1000
8	2420	9.40661718341	1000
8	2423	9.407913736212	1000
8	2426	9.409954421278	1000
8	2429	9.414306714912	1000
8	2432	9.415246912525	1000
8	2435	9.421880504527	1000
8	2438	9.423246832415	1000
8	2441	9.433324834432	1000
8	2444	9.43672205638	1000
8	2447	9.447611011419	1000
8	2450	9.449111318005	1000
8	2453	9.493809810494	1000
8	2456	9.526168228741	1000
8	2459	9.532135186379	1000
8	2462	9.535462876726	1000
8	2465	9.538921434741	1000
8	2468	9.546847121472	1000
8	2471	9.547336895476	1000
8	2474	9.559586884505	1000
8	2477	9.565884009834	1000
8	2480	9.571570348782	1000
8	2483	9.59145908303	1000
8	2486	9.606273729467	1000
8	2489	9.643310495134	1000
8	2492	9.648515689408	1000
8	2495	9.675855406322	1000
8	2498	9.693489806112	1000
8	2501	9.69879706038	1000
8	2504	9.710460777097	1000
8	2507	9.714546515395	1000
8	2510	9.739442343984	1000
8	2513	9.740873522424	1000
8	2516	9.743739225137	1000
8	2519	9.746165108372	1000
8	2522	9.752355689042	1000
8	2525	9.76876455767	1000
8	2528	9.777746128489	1000
8	2531	9.785771712699	1000
8	2534	9.785778266139	1000
8	2537	9.792427275877	1000
8	2540	9.793215234099	1000
8	2543	9.796017398571	1000
8	2546	9.828346090791	1000
8	2549	9.831257038298	1000
8	2552	9.854708743558	1000
8	2555	9.874196868884	1000
8	2558	9.876276919139	1000
8	2561	9.887445001818	1000
8	2564	9.888919991276	1000
8	2567	9.904538496577	1000
8	2570	9.916714017628	1000
8	2573	9.93676585653	1000
8	2576	9.944598779977	1000
8	2579	9.974160715527	1000
8	2582	9.974768014039	1000
8	2585	9.978926818149	1000
8	2588	9.993992226207	1000
8	2593	10.000489896131	1000
8	2596	10.002768597221	1000
8	2599	10.004129453887	1000
8	2602	10.024530941038	1000
8	2605	10.032220853896	1000
8	2608	10.057894584172	1000
8	2611	10.073753665446	1000
8	2614	10.080079690922	1000
8	2617	10.085691179849	1000
8	2620	10.094390261085	1000
8	2623	10.120775444561	1000
8	2626	10.136815377026	1000
8	2629	10.136877372459	1000
8	2632	10.151093606267	1000
8	2635	10.181328688174	1000
8	2638	10.196202054079	1000
8	2641	10.198539727237	1000
8	2644	10.206468308358	1000
8	2647	10.208282593475	1000
8	2650	10.213619214934	1000
8	2653	10.246816976951	1000
8	2656	10.277632049588	1000
8	2659	10.281621472647	1000
8	2662	10.28660095164	1000
8	2665	10.297602828088	1000
8	2668	10.337229035517	1000
8	2671	10.339148262763	1000
8	2675	10.342711627468	1000
8	2689	10.36752717525	1000
8	2692	10.39503417076	1000
8	2695	10.39749660458	1000
8	2698	10.406625203802	1000
8	2701	10.411364307307	1000
8	2704	10.415931398099	1000
8	2707	10.423037495747	1000
8	2710	10.429847886753	1000
8	2713	10.435153688816	1000
8	2716	10.464730810453	1000
8	2719	10.480520581234	1000
8	2722	10.496124050938	1000
8	2725	10.500232471892	1000
8	2728	10.51057721142	1000
8	2731	10.528702069244	1000
8	2734	10.547753620695	1000
8	2737	10.552822462088	1000
8	2740	10.570504195408	1000
8	2743	10.586481047613	1000
8	2746	10.588311961391	1000
8	2749	10.612426064791	1000
8	2752	10.619412237429	1000
8	2755	10.627408207941	1000
8	2758	10.634546723012	1000
8	2761	10.644614402407	1000
8	2764	10.656262391381	1000
8	2768	10.664536546444	1000
8	2782	10.696913542959	1000
8	2785	10.703072043534	1000
8	2788	10.709540517636	1000
8	2791	10.729522374365	1000
8	2794	10.734658436171	1000
8	2797	10.737509222686	1000
8	2800	10.738243855871	1000
8	2803	10.763296139029	1000
8	2806	10.793388807052	1000
8	2809	10.79492444639	1000
8	2812	10.799810572556	1000
8	2815	10.802124448422	1000
8	2818	10.803602648889	1000
8	2821	10.831217689281	1000
8	2824	10.831920395461	1000
8	2827	10.879159669019	1000
8	2830	10.88037676642	1000
8	2833	10.904271354106	1000
8	2836	10.914301884916	1000
8	2839	10.919806709012	1000
8	2842	10.924835558655	1000
8	2845	10.941829880421	1000
8	2848	10.946362444887	1000
8	2851	10.959213905443	1000
8	2854	10.967954873148	1000
8	2857	10.975917133367	1000
8	2862	11.00368843215	1000
8	2865	11.013395036413	1000
8	2868	11.034439004621	1000
8	2871	11.049955867876	1000
8	2874	11.050427710875	1000
8	2877	11.068227193255	1000
8	2880	11.071160675966	1000
8	2883	11.099175734631	1000
8	2886	11.099702206766	1000
8	2889	11.104563085516	1000
8	2892	11.105823851511	1000
8	2895	11.113569608763	1000
8	2898	11.134148686012	1000
8	2901	11.138397751613	1000
8	2904	11.140361184575	1000
8	2918	11.145171699139	1000
8	2921	11.14698693248	1000
8	2924	11.150082275231	1000
8	2927	11.150938319308	1000
8	2931	11.165616596195	1000
8	2934	11.171651545195	1000
8	2937	11.176118926593	1000
8	2940	11.191335789679	1000
8	2943	11.196249061431	1000
8	2946	11.211862413085	1000
8	2949	11.232124147021	1000
8	2952	11.235069780807	1000
8	2955	11.278782297063	1000
8	2958	11.280908269994	1000
8	2961	11.285032374614	1000
8	2964	11.287410790461	1000
8	2967	11.292497498545	1000
8	2970	11.300346021295	1000
8	2973	11.309208171739	1000
8	2976	11.332265618971	1000
8	2979	11.358692840316	1000
8	2982	11.361675974607	1000
8	2985	11.373378723116	1000
8	2988	11.374797317456	1000
8	2991	11.382168680799	1000
8	2994	11.3868378815	1000
8	2997	11.391404238021	1000
8	3000	11.399311140583	1000
8	3003	11.4150154825	1000
8	3006	11.415875789117	1000
8	3009	11.441236568528	1000
8	3012	11.457164444198	1000
8	3015	11.459494735943	1000
8	3018	11.493089009165	1000
8	3021	11.501559233106	1000
8	3024	11.604291452218	1000
8	3027	11.606928137164	1000
8	3030	11.61611438285	1000
8	3033	11.62022845956	1000
8	3036	11.624580319716	1000
8	3039	11.635310719599	1000
8	3042	11.66588013461	1000
8	3045	11.685513451497	1000
8	3048	11.700959156767	1000
8	3051	11.710788411288	1000
8	3054	11.741446980765	1000
8	3057	11.749582807026	1000
8	3060	11.774424515084	1000
8	3074	11.79597239835	1000
8	3078	11.813672618125	1000
8	3081	11.813819568191	1000
8	3084	11.818497555149	1000
8	3087	11.821627193024	1000
8	3090	11.830110810993	1000
8	3093	11.846131328005	1000
8	3096	11.847364712389	1000
8	3099	11.85604606439	1000
8	3102	11.889493527982	1000
8	3105	11.892608830938	1000
8	3108	11.9061753113	1000
8	3111	11.916959086756	1000
8	3114	11.917080462863	1000
8	3117	11.924831646306	1000
8	3120	11.939635365637	1000
8	3123	11.940175025652	1000
8	3126	11.965570431828	1000
8	3129	11.974380097624	1000
8	3132	11.974753788825	1000
8	3135	11.977803419779	1000
8	3140	12.014668483462	1000
8	3143	12.025144952083	1000
8	3146	12.026509328424	1000
8	3149	12.030577782356	1000
8	3152	12.037898985982	1000
8	3155	12.038153057564	1000
8	3158	12.044517553542	1000
8	3161	12.052584956882	1000
8	3164	12.055936411706	1000
8	3167	12.066595820932	1000
8	3170	12.083387895681	1000
8	3173	12.086615542021	1000
8	3176	12.098242346856	1000
8	3179	12.110489576672	1000
8	3182	12.146093052597	1000
8	3185	12.164168924544	1000
8	3188	12.186802710467	1000
8	3191	12.194892729221	1000
8	3194	12.19735266891	1000
8	3197	12.263068495127	1000
8	3200	12.264730757232	1000
8	3203	12.272382337863	1000
8	3206	12.273228606238	1000
8	3209	12.307785531614	1000
8	3212	12.347988712882	1000
8	3215	12.363238146315	1000
8	3218	12.368407409272	1000
8	3221	12.371929918112	1000
8	3224	12.375629488727	1000
8	3227	12.377263367607	1000
8	3230	12.386217107571	1000
8	3233	12.388052366412	1000
8	3236	12.392622760264	1000
8	3239	12.404447443199	1000
8	3242	12.420050763952	1000
8	3245	12.420345629701	1000
8	3248	12.427093498801	1000
8	3251	12.439764429593	1000
8	3254	12.462792398689	1000
8	3257	12.470532108741	1000
8	3260	12.512297285785	1000
8	3263	12.516002235	1000
8	3266	12.516165444312	1000
8	3269	12.524099480521	1000
8	3272	12.527649887007	1000
8	3275	12.548477908401	1000
8	3278	12.55165757403	1000
8	3281	12.556121286131	1000
8	3284	12.574919403793	1000
8	3287	12.589988630135	1000
8	3290	12.599787366108	1000
8	3293	12.61443461257	1000
8	3296	12.620943168895	1000
8	3299	12.621007059276	1000
8	3302	12.621144100315	1000
8	3305	12.629734257683	1000
8	3308	12.630777839815	1000
8	3311	12.631406952041	1000
8	3314	12.671814291787	1000
8	3317	12.695322461233	1000
8	3320	12.697301342304	1000
8	3323	12.697309315539	1000
8	3326	12.731408527009	1000
8	3329	12.735322696579	1000
8	3332	12.737790726019	1000
8	3335	12.751903442746	1000
8	3338	12.753287076632	1000
8	3341	12.756975974434	1000
8	3344	12.801288059089	1000
8	3347	12.813529979825	1000
8	3350	12.822354566734	1000
8	3353	12.828442918607	1000
8	3356	12.846316191048	1000
8	3359	12.848139433351	1000
8	3362	12.889197874305	1000
8	3365	12.912887874589	1000
8	3368	12.92442511986	1000
8	3371	12.92495136632	1000
8	3374	12.939433314575	1000
8	3377	12.968774764675	1000
8	3380	12.977697370523	1000
8	3383	12.982945016795	1000
8	3386	12.984482799826	1000
8	3391	13.001355922031	1000
8	3394	13.02731208042	1000
8	3397	13.028579763727	1000
8	3400	13.045654494865	1000
8	3403	13.045860987183	1000
8	3406	13.086815946335	1000
8	3409	13.098271898354	1000
8	3412	13.107919209167	1000
8	3415	13.112130077227	1000
8	3418	13.143920380313	1000
8	3421	13.147629792595	1000
8	3424	13.168763155119	1000
8	3427	13.219246874562	1000
8	3430	13.237603123778	1000
8	3433	13.246385528252	1000
8	3436	13.247205828511	1000
8	3439	13.254879144432	1000
8	3442	13.261799651893	1000
8	3445	13.264519388514	1000
8	3448	13.271130572209	1000
8	3451	13.276444051274	1000
8	3454	13.278589039915	1000
8	3457	13.285576343889	1000
8	3460	13.289235095821	1000
8	3463	13.298094397368	1000
8	3466	13.298523914069	1000
8	3469	13.326927019747	1000
8	3472	13.347264636842	1000
8	3475	13.356915762816	1000
8	3478	13.379826768695	1000
8	3481	13.419194210844	1000
8	3484	13.420599660913	1000
8	3487	13.432557696198	1000
8	3490	13.507097068715	1000
8	3493	13.560060929965	1000
8	3496	13.571156525002	1000
8	3499	13.572800402501	1000
8	3502	13.583301981528	1000
8	3505	13.583326782718	1000
8	3508	13.58598818651	1000
8	3511	13.623504610239	1000
8	3514	13.628318234434	1000
8	3517	13.640524505947	1000
8	3520	13.644480888186	1000
8	3523	13.679917993925	1000
8	3526	13.695566107841	1000
8	3529	13.700365592326	1000
8	3532	13.719194442493	1000
8	3535	13.720568139246	1000
8	3538	13.726545400466	1000
8	3541	13.729545691893	1000
8	3544	13.743359465063	1000
8	3547	13.74465645275	1000
8	3550	13.750727023919	1000
8	3553	13.754613364407	1000
8	3556	13.763084334493	1000
8	3559	13.768251840566	1000
8	3562	13.782958716589	1000
8	3565	13.783257325569	1000
8	3568	13.795318360243	1000
8	3571	13.798463643865	1000
8	3574	13.802218970109	1000
8	3577	13.821547570734	1000
8	3580	13.858913220676	1000
8	3583	13.863480445612	1000
8	3586	13.884520510061	1000
8	3589	13.885838165825	1000
8	3592	13.897899027861	1000
8	3595	13.914584212935	1000
8	3598	13.916619132616	1000
8	3601	13.923280693158	1000
8	3604	13.950067014469	1000
8	3607	13.951379148631	1000
8	3610	13.951598293825	1000
8	3613	13.9623146165	1000
8	3616	13.96917706568	1000
8	3619	13.98841193213	1000
8	3624	14.019250534802	1000
8	3627	14.023516134003	1000
8	3630	14.029416336545	1000
8	3633	14.037409074568	1000
8	3636	14.048054269877	1000
8	3639	14.097567136382	1000
8	3642	14.111908492319	1000
8	3645	14.117831169583	1000
8	3648	14.12150568439	1000
8	3651	14.156229364049	1000
8	3654	14.157977284027	1000
8	3657	14.173264271438	1000
8	3660	14.20441084871	1000
8	3663	14.217522372662	1000
8	3666	14.224122461031	1000
8	3669	14.226785057248	1000
8	3672	14.23228148978	1000
8	3675	14.247007232871	1000
8	3678	14.259589139481	1000
8	3681	14.291158237475	1000
8	3684	14.315354568502	1000
8	3687	14.335678238449	1000
8	3690	14.364768611498	1000
8	3693	14.368649767603	1000
8	3696	14.374185121158	1000
8	3699	14.379919497431	1000
8	3702	14.389783559119	1000
8	3705	14.403022893177	1000
8	3708	14.4070774121	1000
8	3711	14.407313264386	1000
8	3714	14.413427629634	1000
8	3717	14.417854820291	1000
8	3720	14.452060846809	1000
8	3723	14.478360354598	1000
8	3726	14.50198036788	1000
8	3729	14.514681525581	1000
8	3732	14.519745950227	1000
8	3735	14.529297395455	1000
8	3738	14.549560794936	1000
8	3741	14.550806606973	1000
8	3744	14.570184528507	1000
8	3747	14.570689148952	1000
8	3750	14.591030473202	1000
8	3753	14.610806360835	1000
8	3756	14.61143461108	1000
8	3759	14.623273904795	1000
8	3762	14.631650689776	1000
8	3765	14.63388403535	1000
8	3768	14.635811398645	1000
8	3771	14.653618768249	1000
8	3774	14.663682192698	1000
8	3777	14.712576087675	1000
8	3792	14.760951024762	1000
8	3795	14.762466160728	1000
8	3798	14.795883288154	1000
8	3801	14.799248899804	1000
8	3804	14.806603471511	1000
8	3807	14.823599891436	1000
8	3810	14.826332051262	1000
8	3813	14.836357199232	1000
8	3816	14.838824036938	1000
8	3819	14.84015167801	1000
8	3822	14.841638842014	1000
8	3825	14.846950100504	1000
8	3828	14.847006088917	1000
8	3831	14.85364366357	1000
8	3834	14.866738434569	1000
8	3837	14.8729021534	1000
8	3840	14.873978553521	1000
8	3843	14.874755433457	1000
8	3846	14.878666131842	1000
8	3849	14.880892153846	1000
8	3852	14.921153647401	1000
8	3855	14.923121255062	1000
8	3858	14.94276681538	1000
8	3861	14.953352616272	1000
8	3864	14.963460373688	1000
8	3867	14.972071637166	1000
8	3872	15.014877134727	1000
8	3875	15.020304887015	1000
8	3878	15.038914147156	1000
8	3881	15.04863825277	1000
8	3884	15.054681149764	1000
8	3887	15.092019159456	1000
8	3890	15.102964233495	1000
8	3893	15.104483474062	1000
8	3896	15.110969394766	1000
8	3899	15.129225515147	1000
8	3902	15.143425640808	1000
8	3905	15.17319762012	1000
8	3908	15.176800789072	1000
8	3911	15.193836209082	1000
8	3914	15.201227669824	1000
8	3917	15.211456472888	1000
8	3920	15.248682039778	1000
8	3923	15.29520556702	1000
8	3926	15.318936070288	1000
8	3929	15.324274597868	1000
8	3932	15.350513664201	1000
8	3935	15.362727207644	1000
8	3938	15.369472566787	1000
8	3941	15.369909331866	1000
8	3944	15.387552130205	1000
8	3947	15.395920537089	1000
8	3950	15.414432463126	1000
8	3953	15.430973463069	1000
8	3956	15.449906837039	1000
8	3959	15.454198104341	1000
8	3962	15.473559371214	1000
8	3965	15.483110738442	1000
8	3968	15.490804825193	1000
8	3971	15.50429663634	1000
8	3974	15.504555717309	1000
8	3977	15.505850974207	1000
8	3980	15.509997715048	1000
8	3983	15.558885240477	1000
8	3986	15.560691568328	1000
8	3989	15.565507983884	1000
8	3992	15.56613681267	1000
8	3995	15.570965291205	1000
8	3998	15.57559900031	1000
8	4001	15.610804980684	1000
8	4004	15.633188877739	1000
8	4007	15.638978927954	1000
8	4010	15.639279899589	1000
8	4013	15.660616388044	1000
8	4016	15.673581042581	1000
8	4019	15.675564697132	1000
8	4022	15.742037969318	1000
8	4025	15.743305408394	1000
8	4028	15.767524620815	1000
8	4031	15.771706826154	1000
8	4034	15.778565490396	1000
8	4037	15.797609187123	1000
8	4040	15.811189323936	1000
8	4043	15.844530553435	1000
8	4046	15.856177626233	1000
8	4049	15.857412790005	1000
8	4052	15.88330010763	1000
8	4055	15.900892240751	1000
8	4058	15.915824381685	1000
8	4061	15.9164871547	1000
8	4064	15.922541753837	1000
8	4067	15.924740693414	1000
8	4070	15.94544587771	1000
8	4073	15.959914715169	1000
8	4076	15.985669652584	1000
8	4081	16.02645110498	1000
8	4084	16.044337510511	1000
8	4087	16.106204928648	1000
8	4090	16.117651901728	1000
8	4093	16.11810593927	1000
8	4096	16.118278187726	1000
8	4099	16.123302686408	1000
8	4102	16.144113976633	1000
8	4105	16.168245031898	1000
8	4108	16.207117809333	1000
8	4111	16.207925873371	1000
8	4114	16.208473012682	1000
8	4117	16.237814359035	1000
8	4120	16.242181286585	1000
8	4123	16.251978289318	1000
8	4126	16.300487206558	1000
8	4129	16.306626088044	1000
8	4132	16.319780839911	1000
8	4135	16.325928351676	1000
8	4138	16.343470639475	1000
8	4141	16.352472704524	1000
8	4144	16.355726901839	1000
8	4147	16.359524920145	1000
8	4150	16.363106750291	1000
8	4153	16.372226410506	1000
8	4156	16.386802327793	1000
8	4159	16.422579524738	1000
8	4162	16.43679299393	1000
8	4165	16.455027767882	1000
8	4168	16.457248206779	1000
8	4171	16.462870266213	1000
8	4174	16.469278992365	1000
8	4177	16.483193879819	1000
8	4180	16.4874037617	1000
8	4183	16.491740427092	1000
8	4186	16.497019040358	1000
8	4189	16.516966909003	1000
8	4192	16.527308258071	1000
8	4195	16.528247394246	1000
8	4198	16.529225118322	1000
8	4201	16.534794082217	1000
8	4204	16.552253641007	1000
8	4207	16.566256980404	1000
8	4210	16.581028272972	1000
8	4213	16.598519698551	1000
8	4216	16.602581555282	1000
8	4219	16.612117238422	1000
8	4222	16.621523364366	1000
8	4225	16.637671298616	1000
8	4228	16.675393893619	1000
8	4231	16.679302488107	1000
8	4234	16.698219265735	1000
8	4237	16.711163942284	1000
8	4240	16.721580747344	1000
8	4243	16.739474195938	1000
8	4246	16.774069996974	1000
8	4249	16.774518574725	1000
8	4252	16.776432153435	1000
8	4255	16.793373332257	1000
8	4258	16.794423466256	1000
8	4261	16.803134578131	1000
8	4264	16.806113972731	1000
8	4267	16.809961324619	1000
8	4270	16.824482844349	1000
8	4273	16.824850739898	1000
8	4276	16.849643778243	1000
8	4279	16.8566979636	1000
8	4282	16.865073306695	1000
8	4285	16.87439290335	1000
8	4288	16.886838965944	1000
8	4291	16.891913779334	1000
8	4294	16.893192881176	1000
8	4297	16.89779225804	1000
8	4300	16.900001382136	1000
8	4303	16.909748150713	1000
8	4306	16.914341362029	1000
8	4309	16.952401598713	1000
8	4312	16.992884916385	1000
8	4317	17.004499900487	1000
8	4320	17.016032134246	1000
8	4323	17.066735337064	1000
8	4326	17.092929853634	1000
8	4329	17.110311463385	1000
8	4332	17.114826836026	1000
8	4335	17.120286590044	1000
8	4338	17.122983329228	1000
8	4341	17.13099654784	1000
8	4344	17.18670916566	1000
8	4347	17.215894788959	1000
8	4350	17.217406302782	1000
8	4353	17.217712458767	1000
8	4356	17.245181103903	1000
8	4359	17.254425852837	1000
8	4362	17.257106424038	1000
8	4365	17.270543962529	1000
8	4368	17.282945382266	1000
8	4371	17.284507856494	1000
8	4374	17.288114636639	1000
8	4377	17.288858136767	1000
8	4380	17.291684685526	1000
8	4383	17.29338767505	1000
8	4386	17.295964368579	1000
8	4389	17.309844369476	1000
8	4392	17.310453571685	1000
8	4395	17.311742651598	1000
8	4398	17.313471502334	1000
8	4401	17.318038567891	1000
8	4404	17.322297262973	1000
8	4407	17.32583074309	1000
8	4410	17.342492062342	1000
8	4413	17.417204880735	1000
8	4416	17.426367147938	1000
8	4419	17.460999509053	1000
8	4422	17.467061809664	1000
8	4425	17.468415567561	1000
8	4428	17.474722247193	1000
8	4431	17.478936148336	1000
8	4434	17.487096715715	1000
8	4437	17.499938541871	1000
8	4440	17.507356136342	1000
8	4443	17.540186222491	1000
8	4446	17.566115585016	1000
8	4449	17.580642624185	1000
8	4452	17.588715347265	1000
8	4455	17.590409787482	1000
8	4458	17.596480116481	1000
8	4461	17.611105156034	1000
8	4464	17.615128907749	1000
8	4467	17.616446526428	1000
8	4470	17.645064890147	1000
8	4473	17.659880169661	1000
8	4476	17.671342932049	1000
8	4479	17.6902143559	1000
8	4493	17.711883150072	1000
8	4497	17.737445730259	1000
8	4500	17.767229000772	1000
8	4503	17.771031054372	1000
8	4506	17.782255066156	1000
8	4509	17.791228436297	1000
8	4512	17.800493312825	1000
8	4515	17.83379573245	1000
8	4518	17.838165112277	1000
8	4521	17.887369932501	1000
8	4524	17.915259464724	1000
8	4527	17.922625351509	1000
8	4530	17.943034340062	1000
8	4533	17.960620832641	1000
8	4536	17.97421536376	1000
8	4539	17.978840382396	1000
8	4542	17.981464987574	1000
8	4545	17.994824620698	1000
8	4550	18.017040693686	1000
8	4553	18.017237329497	1000
8	4556	18.029590956114	1000
8	4559	18.036610501464	1000
8	4562	18.064014219897	1000
8	4565	18.068668190762	1000
8	4568	18.076381856579	1000
8	4571	18.085059372343	1000
8	4574	18.086875381394	1000
8	4577	18.101850155997	1000
8	4580	18.123147310047	1000
8	4583	18.123863154473	1000
8	4586	18.127996534145	1000
8	4589	18.128461981401	1000
8	4592	18.166094085779	1000
8	4595	18.179295524504	1000
8	4598	18.219253354562	1000
8	4601	18.228351838207	1000
8	4604	18.247789850695	1000
8	4607	18.253418648089	1000
8	4610	18.258658756184	1000
8	4613	18.264361706418	1000
8	4616	18.27723220438	1000
8	4619	18.282577400641	1000
8	4622	18.310252596599	1000
8	4625	18.359342710461	1000
8	4628	18.359713498566	1000
8	4631	18.362295949745	1000
8	4634	18.363724730842	1000
8	4637	18.364244181816	1000
8	4640	18.367345405177	1000
8	4643	18.374449688403	1000
8	4646	18.39621704035	1000
8	4649	18.399226671538	1000
8	4652	18.407399996562	1000
8	4655	18.439245936287	1000
8	4658	18.45244902944	1000
8	4661	18.471647575449	1000
8	4664	18.481256202841	1000
8	4667	18.52848367183	1000
8	4670	18.539143756486	1000
8	4673	18.539702702795	1000
8	4676	18.542350205497	1000
8	4679	18.548575967391	1000
8	4682	18.559609832748	1000
8	4685	18.577347110637	1000
8	4688	18.583741636989	1000
8	4691	18.598598542209	1000
8	4694	18.617318860845	1000
8	4697	18.621898558221	1000
8	4700	18.66841277445	1000
8	4703	18.6809988684	1000
8	4706	18.706542254353	1000
8	4709	18.716283739059	1000
8	4712	18.732522841528	1000
8	4715	18.750187372877	1000
8	4718	18.77885141442	1000
8	4721	18.780806580292	1000
8	4724	18.790611622141	1000
8	4727	18.797322961035	1000
8	4730	18.828115167942	1000
8	4733	18.829447616407	1000
8	4736	18.878045040441	1000
8	4739	18.903041744142	1000
8	4742	18.903962065626	1000
8	4745	18.912064960207	1000
8	4748	18.927236408703	1000
8	4751	18.943316281025	1000
8	4754	18.971753052556	1000
8	4757	18.991058236327	1000
8	4760	18.995527192019	1000
8	4765	19.003807451724	1000
8	4768	19.018326769435	1000
8	4771	19.020114852452	1000
8	4774	19.022702773894	1000
8	4777	19.030573972156	1000
8	4780	19.03482403706	1000
8	4783	19.058638785515	1000
8	4786	19.069229498349	1000
8	4789	19.074374276048	1000
8	4792	19.097046719608	1000
8	4795	19.116656310283	1000
8	4798	19.193575612989	1000
8	4801	19.216127577977	1000
8	4804	19.222550156312	1000
8	4807	19.2241868525	1000
8	4810	19.246225994633	1000
8	4813	19.246965409442	1000
8	4816	19.252139812422	1000
8	4819	19.282409318317	1000
8	4822	19.321268003173	1000
8	4825	19.333546652606	1000
8	4828	19.34754863894	1000
8	4831	19.348069223323	1000
8	4834	19.356739649251	1000
8	4837	19.36623851574	1000
8	4840	19.371226532998	1000
8	4843	19.372079289596	1000
8	4846	19.375198654397	1000
8	4849	19.380516357879	1000
8	4852	19.387370528504	1000
8	4855	19.398096860368	1000
8	4858	19.413475382404	1000
8	4861	19.41806161438	1000
8	4864	19.422848621238	1000
8	4867	19.423087278526	1000
8	4870	19.423588083147	1000
8	4873	19.427166072284	1000
8	4876	19.443342268792	1000
8	4879	19.455218733646	1000
8	4882	19.472843842599	1000
8	4885	19.490423709057	1000
8	4888	19.513726395098	1000
8	4891	19.529015673902	1000
8	4894	19.575380708578	1000
8	4897	19.602871577241	1000
8	4900	19.613475054363	1000
8	4903	19.624120430799	1000
8	4906	19.624538845864	1000
8	4909	19.702780834096	1000
8	4912	19.704473736519	1000
8	4915	19.720654655536	1000
8	4918	19.741300108321	1000
8	4921	19.746902856823	1000
8	4924	19.749533452953	1000
8	4927	19.750781255695	1000
8	4930	19.76735006236	1000
8	4933	19.774582141682	1000
8	4936	19.789591467109	1000
8	4939	19.81923040348	1000
8	4942	19.821132497738	1000
8	4945	19.851317532018	1000
8	4948	19.857682251109	1000
8	4951	19.862052983475	1000
8	4954	19.896442546053	1000
8	4957	19.952513267758	1000
8	4960	19.955174385083	1000
8	4963	19.968009028914	1000
8	4966	19.969360273372	1000
8	4969	19.98198951701	1000
8	4974	20.003064827394	1000
8	4977	20.016907931076	1000
8	4980	20.023389607271	1000
8	4983	20.029185533018	1000
8	4986	20.03517867117	1000
8	4989	20.045869416926	1000
8	4992	20.071470339072	1000
8	4995	20.10322242974	1000
8	4998	20.103882617026	1000
8	5001	20.106287794179	1000
8	5004	20.10771622831	1000
8	5007	20.110294384792	1000
8	5010	20.115401317579	1000
8	5013	20.123876877081	1000
8	5016	20.135790443253	1000
8	5019	20.151598032492	1000
8	5022	20.178097505316	1000
8	5025	20.232312688507	1000
8	5028	20.245359647336	1000
8	5031	20.267759863391	1000
8	5034	20.285822898167	1000
8	5037	20.290232817835	1000
8	5040	20.315252759009	1000
8	5043	20.31577721204	1000
8	5046	20.315781621052	1000
8	5049	20.319619665648	1000
8	5052	20.327060601831	1000
8	5055	20.339265970308	1000
8	5058	20.340553923236	1000
8	5061	20.353967836494	1000
8	5064	20.373390540996	1000
8	5067	20.375849955332	1000
8	5070	20.382286246102	1000
8	5073	20.391093500886	1000
8	5076	20.398307035669	1000
8	5079	20.417610090758	1000
8	5082	20.456394350625	1000
8	5085	20.475644959175	1000
8	5088	20.4766193863	1000
8	5091	20.496232490698	1000
8	5094	20.497059500899	1000
8	5097	20.500289285536	1000
8	5100	20.502283313407	1000
8	5103	20.504923880144	1000
8	5106	20.513941210148	1000
8	5109	20.527306768854	1000
8	5112	20.534932584539	1000
8	5115	20.573468132696	1000
8	5118	20.576765991367	1000
8	5121	20.594049435209	1000
8	5124	20.618548913181	1000
8	5127	20.62845716104	1000
8	5130	20.635767742542	1000
8	5133	20.646649307068	1000
8	5136	20.653369702868	1000
8	5140	20.663091104234	1000
8	5153	20.669564561884	1000
8	5157	20.683827523221	1000
8	5160	20.684996908766	1000
8	5163	20.687182973416	1000
8	5166	20.710044675588	1000
8	5169	20.72773712861	1000
8	5172	20.731703430694	1000
8	5175	20.73738711693	1000
8	5178	20.768635698143	1000
8	5181	20.789085774254	1000
8	5184	20.80051955971	1000
8	5187	20.803524043718	1000
8	5190	20.804067175382	1000
8	5193	20.810839112651	1000
8	5196	20.824238978895	1000
8	5199	20.845395678366	1000
8	5202	20.868378190425	1000
8	5205	20.868778091225	1000
8	5208	20.872137150894	1000
8	5211	20.877106885514	1000
8	5214	20.879616770493	1000
8	5217	20.89910988906	1000
8	5220	20.916614503104	1000
8	5223	20.925343219237	1000
8	5226	20.974185937231	1000
8	5229	20.976052576855	1000
8	5246	21.003641875278	1000
8	5249	21.005779655171	1000
8	5252	21.020077041939	1000
8	5255	21.021469647291	1000
8	5258	21.031481893992	1000
8	5261	21.038023452788	1000
8	5264	21.053667819855	1000
8	5267	21.081380144237	1000
8	5270	21.099009554002	1000
8	5273	21.121750209491	1000
8	5276	21.122152213952	1000
8	5279	21.126608378647	1000
8	5282	21.135302375651	1000
8	5285	21.141755667955	1000
8	5288	21.144911618777	1000
8	5291	21.149327467543	1000
8	5294	21.184226932731	1000
8	5297	21.188407688091	1000
8	5300	21.193649376325	1000
8	5303	21.193693976381	1000
8	5306	21.21607195005	1000
8	5309	21.218090711922	1000
8	5312	21.220830760245	1000
8	5315	21.224367474363	1000
8	5318	21.250281978961	1000
8	5321	21.253056865055	1000
8	5324	21.272222611997	1000
8	5327	21.292028815087	1000
8	5330	21.323439746533	1000
8	5333	21.324913371525	1000
8	5336	21.32785311877	1000
8	5339	21.344152521001	1000
8	5342	21.346770404381	1000
8	5345	21.350818412044	1000
8	5348	21.35300734958	1000
8	5351	21.355282356168	1000
8	5354	21.363165374192	1000
8	5357	21.364559507398	1000
8	5360	21.369217452666	1000
8	5363	21.375891385956	1000
8	5366	21.376189639336	1000
8	5369	21.38208844973	1000
8	5372	21.383274663155	1000
8	5375	21.391439295432	1000
8	5378	21.412405652687	1000
8	5381	21.432878503085	1000
8	5384	21.433884933993	1000
8	5387	21.444917312102	1000
8	5401	21.46650898619	1000
8	5405	21.483731096713	1000
8	5408	21.51030207011	1000
8	5411	21.529988517695	1000
8	5414	21.531350587911	1000
8	5417	21.531459803375	1000
8	5420	21.534014025346	1000
8	5423	21.537798403617	1000
8	5426	21.549289476371	1000
8	5429	21.555108898917	1000
8	5432	21.569693633539	1000
8	5435	21.574919931812	1000
8	5438	21.57693279873	1000
8	5441	21.581432434182	1000
8	5444	21.607316002729	1000
8	5447	21.645510102248	1000
8	5450	21.648301048282	1000
8	5453	21.666941618228	1000
8	5456	21.670773321527	1000
8	5459	21.696951708567	1000
8	5462	21.699123435015	1000
[...]
15	10398	41.361784029015	0
15	10482	41.682740482265	1
15	10483	41.682740482265	2
15	10485	41.683468482265	1
15	10485	41.683468482265	0
15	10616	42.162498275806	1
15	10617	42.162498275806	2
15	10619	42.163226275806	1
15	10619	42.163226275806	0
15	10802	42.801543848598	1
15	10803	42.801543848598	2
15	10805	42.802271848598	1
15	10805	42.802271848598	0
15	11636	45.762113271965	1
15	11637	45.762113271965	2
15	11639	45.762841271965	1
15	11639	45.762841271965	0
15	12518	48.722926700184	1
15	12519	48.722926700184	2
15	12521	48.723654700184	1
15	12521	48.723654700184	0
15	13292	51.702130670149	1
15	13293	51.702130670149	2
15	13295	51.702858670149	1
15	13295	51.702858670149	0
15	13390	52.021456226365	1
15	13391	52.021456226365	2
15	13393	52.022184226365	1
15	13393	52.022184226365	0
15	13531	52.501088570496	1
15	13532	52.501088570496	2
15	13534	52.501816570496	1
15	13534	52.501816570496	0
15	13758	53.139637624154	1
15	13759	53.139637624154	2
15	13761	53.140365624154	1
15	13761	53.140365624154	0
15	14583	56.101961230184	1
15	14584	56.101961230184	2
15	14586	56.102689230184	1
15	14586	56.102689230184	0
15	15378	59.061944433945	1
15	15379	59.061944433945	2
15	15381	59.062672433945	1
15	15381	59.062672433945	0
16	15686	0.1	0
16	15686	0.2	0
16	15686	0.3	0
16	15686	0.4	0
16	15686	0.5	0
16	15686	0.6	0
16	15686	0.7	0
16	15686	0.8	0
16	15686	0.9	0
16	15686	1	0
16	15686	1.1	0
16	15686	1.2	0
16	15686	1.3	0
16	15686	1.4	0
16	15686	1.5	0
16	15686	1.6	0
16	15686	1.7	0
16	15686	1.8	0
16	15686	1.9	0
16	15686	2	0
16	15686	2.1	0
16	15686	2.2	0
16	15686	2.3	0
16	15686	2.4	0
16	15686	2.5	0
16	15686	2.6	0
16	15686	2.7	0
16	15686	2.8	0
16	15686	2.9	0
16	15686	3	0
16	15686	3.1	0
16	15686	3.2	0
16	15686	3.3	0
16	15686	3.4	0
16	15686	3.5	0
16	15686	3.6	0
16	15686	3.7	0
16	15686	3.8	0
16	15686	3.9	0
16	15686	4	0
16	15686	4.1	0
16	15686	4.2	0
16	15686	4.3	0
16	15686	4.4	0
16	15686	4.5	0
16	15686	4.6	0
16	15686	4.7	0
16	15686	4.8	0
16	15686	4.9	0
16	15686	5	0
16	15686	5.1	0
16	15686	5.2	0
16	15686	5.3	0
16	15686	5.4	0
16	15686	5.5	0
16	15686	5.6	0
16	15686	5.7	0
16	15686	5.8	0
16	15686	5.9	0
16	15686	6	0
16	15686	6.1	0
16	15686	6.2	0
16	15686	6.3	0
16	15686	6.4	0
16	15686	6.5	0
16	15686	6.6	0
16	15686	6.7	0
16	15686	6.8	0
16	15686	6.9	0
16	15686	7	0
16	15686	7.1	0
16	15686	7.2	0
16	15686	7.3	0
16	15686	7.4	0
16	15686	7.5	0
16	15686	7.6	0
16	15686	7.7	0
16	15686	7.8	0
16	15686	7.9	0
16	15686	8	0
16	15686	8.1	0
16	15686	8.2	0
16	15686	8.3	0
16	15686	8.4	0
16	15686	8.5	0
16	15686	8.6	0
16	15686	8.7	0
16	15686	8.8	0
16	15686	8.9	0
16	15686	9	0
16	15686	9.1	0
16	15686	9.2	0
16	15686	9.3	0
16	15686	9.4	0
16	15686	9.5	0
16	15686	9.6	0
16	15686	9.7	0
16	15686	9.8	0
16	15686	9.9	0
16	15686	10	0
16	15686	10.1	0
16	15686	10.2	0
16	15686	10.3	0
16	15686	10.4	0
16	15686	10.5	0
16	15686	10.6	0
16	15686	10.7	0
16	15686	10.8	0
16	15686	10.9	0
16	15686	11	0
16	15686	11.1	0
16	15686	11.2	0
16	15686	11.3	0
16	15686	11.4	0
16	15686	11.5	0
16	15686	11.6	0
16	15686	11.7	0
16	15686	11.8	0
16	15686	11.9	0
16	15686	12	0
16	15686	12.1	0
16	15686	12.2	0
16	15686	12.3	0
16	15686	12.4	0
16	15686	12.5	0
16	15686	12.6	0
16	15686	12.7	0
16	15686	12.8	0
16	15686	12.9	0
16	15686	13	0
16	15686	13.1	0
16	15686	13.2	0
16	15686	13.3	0
16	15686	13.4	0
16	15686	13.5	0
16	15686	13.6	0
16	15686	13.7	0
16	15686	13.8	0
16	15686	13.9	0
16	15686	14	0
16	15686	14.1	0
16	15686	14.2	0
16	15686	14.3	0
16	15686	14.4	0
16	15686	14.5	0
16	15686	14.6	0
16	15686	14.7	0
16	15686	14.8	0
16	15686	14.9	0
16	15686	15	0
16	15686	15.1	0
16	15686	15.2	0
16	15686	15.3	0
16	15686	15.4	0
16	15686	15.5	0
16	15686	15.6	0
16	15686	15.7	0
16	15686	15.8	0
16	15686	15.9	0
16	15686	16	0
16	15686	16.1	0
16	15686	16.2	0
16	15686	16.3	0
16	15686	16.4	0
16	15686	16.5	0
16	15686	16.6	0
16	15686	16.7	0
16	15686	16.8	0
16	15686	16.9	0
16	15686	17	0
16	15686	17.1	0
16	15686	17.2	0
16	15686	17.3	0
16	15686	17.4	0
16	15686	17.5	0
16	15686	17.6	0
16	15686	17.7	0
16	15686	17.8	0
16	15686	17.9	0
16	15686	18	0
16	15686	18.1	0
16	15686	18.2	0
16	15686	18.3	0
16	15686	18.4	0
16	15686	18.5	0
16	15686	18.6	0
16	15686	18.7	0
16	15686	18.8	0
16	15686	18.9	0
16	15686	19	0
16	15686	19.1	0
16	15686	19.2	0
16	15686	19.3	0
16	15686	19.4	0
16	15686	19.5	0
16	15686	19.6	0
16	15686	19.7	0
16	15686	19.8	0
16	15686	19.9	0
16	15686	20	0
16	15686	20.1	0
16	15686	20.2	0
16	15686	20.3	0
16	15686	20.4	0
16	15686	20.5	0
16	15686	20.6	0
16	15686	20.7	0
16	15686	20.8	0
16	15686	20.9	0
16	15686	21	0
16	15686	21.1	0
16	15686	21.2	0
16	15686	21.3	0
16	15686	21.4	0
16	15686	21.5	0
16	15686	21.6	0
16	15686	21.7	0
16	15686	21.8	0
16	15686	21.9	0
16	15686	22	0
16	15686	22.1	0
16	15686	22.2	0
16	15686	22.3	0
16	15686	22.4	0
16	15686	22.5	0
16	15686	22.6	0
16	15686	22.7	0
16	15686	22.8	0
16	15686	22.9	0
16	15686	23	0
16	15686	23.1	0
16	15686	23.2	0
16	15686	23.3	0
16	15686	23.4	0
16	15686	23.5	0
16	15686	23.6	0
16	15686	23.7	0
16	15686	23.8	0
16	15686	23.9	0
16	15686	24	0
16	15686	24.1	0
16	15686	24.2	0
16	15686	24.3	0
16	15686	24.4	0
16	15686	24.5	0
16	15686	24.6	0
16	15686	24.7	0
16	15686	24.8	0
16	15686	24.9	0
16	15686	25	0
16	15686	25.1	0
16	15686	25.2	0
16	15686	25.3	0
16	15686	25.4	0
16	15686	25.5	0
16	15686	25.6	0
16	15686	25.7	0
16	15686	25.8	0
16	15686	25.9	0
16	15686	26	0
16	15686	26.1	0
16	15686	26.2	0
16	15686	26.3	0
16	15686	26.4	0
16	15686	26.5	0
16	15686	26.6	0
16	15686	26.7	0
16	15686	26.8	0
16	15686	26.9	0
16	15686	27	0
16	15686	27.1	0
16	15686	27.2	0
16	15686	27.3	0
16	15686	27.4	0
16	15686	27.5	0
16	15686	27.6	0
16	15686	27.7	0
16	15686	27.8	0
16	15686	27.9	0
16	15686	28	0
16	15686	28.1	0
16	15686	28.2	0
16	15686	28.3	0
16	15686	28.4	0
16	15686	28.5	0
16	15686	28.6	0
16	15686	28.7	0
16	15686	28.8	0
16	15686	28.9	0
16	15686	29	0
16	15686	29.1	0
16	15686	29.2	0
16	15686	29.3	0
16	15686	29.4	0
16	15686	29.5	0
16	15686	29.6	0
16	15686	29.7	0
16	15686	29.8	0
16	15686	29.9	0
16	15686	30	0
16	15686	30.1	0
16	15686	30.2	0
16	15686	30.3	0
16	15686	30.4	0
16	15686	30.5	0
16	15686	30.6	0
16	15686	30.7	0
16	15686	30.8	0
16	15686	30.9	0
16	15686	31	0
16	15686	31.1	0
16	15686	31.2	0
16	15686	31.3	0
16	15686	31.4	0
16	15686	31.5	0
16	15686	31.6	0
16	15686	31.7	0
16	15686	31.8	0
16	15686	31.9	0
16	15686	32	0
16	15686	32.1	0
16	15686	32.2	0
16	15686	32.3	0
16	15686	32.4	0
16	15686	32.5	0
16	15686	32.6	0
16	15686	32.7	0
16	15686	32.8	0
16	15686	32.9	0
16	15686	33	0
16	15686	33.1	0
16	15686	33.2	0
16	15686	33.3	0
16	15686	33.4	0
16	15686	33.5	0
16	15686	33.6	0
16	15686	33.7	0
16	15686	33.8	0
16	15686	33.9	0
16	15686	34	0
16	15686	34.1	0
16	15686	34.2	0
16	15686	34.3	0
16	15686	34.4	0
16	15686	34.5	0
16	15686	34.6	0
16	15686	34.7	0
16	15686	34.8	0
16	15686	34.9	0
16	15686	35	0
16	15686	35.1	0
16	15686	35.2	0
16	15686	35.3	0
16	15686	35.4	0
16	15686	35.5	0
16	15686	35.6	0
16	15686	35.7	0
16	15686	35.8	0
16	15686	35.9	0
16	15686	36	0
16	15686	36.1	0
16	15686	36.2	0
16	15686	36.3	0
16	15686	36.4	0
16	15686	36.5	0
16	15686	36.6	0
16	15686	36.7	0
16	15686	36.8	0
16	15686	36.9	0
16	15686	37	0
16	15686	37.1	0
16	15686	37.2	0
16	15686	37.3	0
16	15686	37.4	0
16	15686	37.5	0
16	15686	37.6	0
16	15686	37.7	0
16	15686	37.8	0
16	15686	37.9	0
16	15686	38	0
16	15686	38.1	0
16	15686	38.2	0
16	15686	38.3	0
16	15686	38.4	0
16	15686	38.5	0
16	15686	38.6	0
16	15686	38.7	0
16	15686	38.8	0
16	15686	38.9	0
16	15686	39	0
16	15686	39.1	0
16	15686	39.2	0
16	15686	39.3	0
16	15686	39.4	0
16	15686	39.5	0
16	15686	39.6	0
16	15686	39.7	0
16	15686	39.8	0
16	15686	39.9	0
16	15686	40	0
16	15686	40.1	0
16	15686	40.2	0
16	15686	40.3	0
16	15686	40.4	0
16	15686	40.5	0
16	15686	40.6	0
16	15686	40.7	0
16	15686	40.8	0
16	15686	40.9	0
16	15686	41	0
16	15686	41.1	0
16	15686	41.2	0
16	15686	41.3	0
16	15686	41.4	0
16	15686	41.5	0
16	15686	41.6	0
16	15686	41.7	0
16	15686	41.8	0
16	15686	41.9	0
16	15686	42	0
16	15686	42.1	0
16	15686	42.2	0
16	15686	42.3	0
16	15686	42.4	0
16	15686	42.5	0
16	15686	42.6	0
16	15686	42.7	0
16	15686	42.8	0
16	15686	42.9	0
16	15686	43	0
16	15686	43.1	0
16	15686	43.2	0
16	15686	43.3	0
16	15686	43.4	0
16	15686	43.5	0
16	15686	43.6	0
16	15686	43.7	0
16	15686	43.8	0
16	15686	43.9	0
16	15686	44	0
16	15686	44.1	0
16	15686	44.2	0
16	15686	44.3	0
16	15686	44.4	0
16	15686	44.5	0
16	15686	44.6	0
16	15686	44.7	0
16	15686	44.8	0
16	15686	44.9	0
16	15686	45	0
16	15686	45.1	0
16	15686	45.2	0
16	15686	45.3	0
16	15686	45.4	0
16	15686	45.5	0
16	15686	45.6	0
16	15686	45.7	0
16	15686	45.8	0
16	15686	45.9	0
16	15686	46	0
16	15686	46.1	0
16	15686	46.2	0
16	15686	46.3	0
16	15686	46.4	0
16	15686	46.5	0
16	15686	46.6	0
16	15686	46.7	0
16	15686	46.8	0
16	15686	46.9	0
16	15686	47	0
16	15686	47.1	0
16	15686	47.2	0
16	15686	47.3	0
16	15686	47.4	0
16	15686	47.5	0
16	15686	47.6	0
16	15686	47.7	0
16	15686	47.8	0
16	15686	47.9	0
16	15686	48	0
16	15686	48.1	0
16	15686	48.2	0
16	15686	48.3	0
16	15686	48.4	0
16	15686	48.5	0
16	15686	48.6	0
16	15686	48.7	0
16	15686	48.8	0
16	15686	48.9	0
16	15686	49	0
16	15686	49.1	0
16	15686	49.2	0
16	15686	49.3	0
16	15686	49.4	0
16	15686	49.5	0
16	15686	49.6	0
16	15686	49.7	0
16	15686	49.8	0
16	15686	49.9	0
16	15686	50	0
16	15686	50.1	0
16	15686	50.2	0
16	15686	50.3	0
16	15686	50.4	0
16	15686	50.5	0
16	15686	50.6	0
16	15686	50.7	0
16	15686	50.8	0
16	15686	50.9	0
16	15686	51	0
16	15686	51.1	0
16	15686	51.2	0
16	15686	51.3	0
16	15686	51.4	0
16	15686	51.5	0
16	15686	51.6	0
16	15686	51.7	0
16	15686	51.8	0
16	15686	51.9	0
16	15686	52	0
16	15686	52.1	0
16	15686	52.2	0
16	15686	52.3	0
16	15686	52.4	0
16	15686	52.5	0
16	15686	52.6	0
16	15686	52.7	0
16	15686	52.8	0
16	15686	52.9	0
16	15686	53	0
16	15686	53.1	0
16	15686	53.2	0
16	15686	53.3	0
16	15686	53.4	0
16	15686	53.5	0
16	15686	53.6	0
16	15686	53.7	0
16	15686	53.8	0
16	15686	53.9	0
16	15686	54	0
16	15686	54.1	0
16	15686	54.2	0
16	15686	54.3	0
16	15686	54.4	0
16	15686	54.5	0
16	15686	54.6	0
16	15686	54.7	0
16	15686	54.8	0
16	15686	54.9	0
16	15686	55	0
16	15686	55.1	0
16	15686	55.2	0
16	15686	55.3	0
16	15686	55.4	0
16	15686	55.5	0
16	15686	55.6	0
16	15686	55.7	0
16	15686	55.8	0
16	15686	55.9	0
16	15686	56	0
16	15686	56.1	0
16	15686	56.2	0
16	15686	56.3	0
16	15686	56.4	0
16	15686	56.5	0
16	15686	56.6	0
16	15686	56.7	0
16	15686	56.8	0
16	15686	56.9	0
16	15686	57	0
16	15686	57.1	0
16	15686	57.2	0
16	15686	57.3	0
16	15686	57.4	0
16	15686	57.5	0
16	15686	57.6	0
16	15686	57.7	0
16	15686	57.8	0
16	15686	57.9	0
16	15686	58	0
16	15686	58.1	0
16	15686	58.2	0
16	15686	58.3	0
16	15686	58.4	0
16	15686	58.5	0
16	15686	58.6	0
16	15686	58.7	0
16	15686	58.8	0
16	15686	58.9	0
16	15686	59	0
16	15686	59.1	0
16	15686	59.2	0
16	15686	59.3	0
16	15686	59.4	0
16	15686	59.5	0
16	15686	59.6	0
16	15686	59.7	0
16	15686	59.8	0
16	15686	59.9	0
16	15686	60	0
17	15686	0.1	0
17	15686	0.2	0
17	15686	0.3	0
17	15686	0.4	0
17	15686	0.5	0
17	15686	0.6	0
17	15686	0.7	0
17	15686	0.8	0
17	15686	0.9	0
17	15686	1	0
17	15686	1.1	0
17	15686	1.2	0
17	15686	1.3	0
17	15686	1.4	0
17	15686	1.5	0
17	15686	1.6	0
17	15686	1.7	0
17	15686	1.8	0
17	15686	1.9	0
17	15686	2	0
17	15686	2.1	0
17	15686	2.2	0
17	15686	2.3	0
17	15686	2.4	0
17	15686	2.5	0
17	15686	2.6	0
17	15686	2.7	0
17	15686	2.8	0
17	15686	2.9	0
17	15686	3	0
17	15686	3.1	0
17	15686	3.2	0
17	15686	3.3	0
17	15686	3.4	0
17	15686	3.5	0
17	15686	3.6	0
17	15686	3.7	0
17	15686	3.8	0
17	15686	3.9	0
17	15686	4	0
17	15686	4.1	0
17	15686	4.2	0
17	15686	4.3	0
17	15686	4.4	0
17	15686	4.5	0
17	15686	4.6	0
17	15686	4.7	0
17	15686	4.8	0
17	15686	4.9	0
17	15686	5	0
17	15686	5.1	0
17	15686	5.2	0
17	15686	5.3	0
17	15686	5.4	0
17	15686	5.5	0
17	15686	5.6	0
17	15686	5.7	0
17	15686	5.8	0
17	15686	5.9	0
17	15686	6	0
17	15686	6.1	0
17	15686	6.2	0
17	15686	6.3	0
17	15686	6.4	0
17	15686	6.5	0
17	15686	6.6	0
17	15686	6.7	0
17	15686	6.8	0
17	15686	6.9	0
17	15686	7	0
17	15686	7.1	0
17	15686	7.2	0
17	15686	7.3	0
17	15686	7.4	0
17	15686	7.5	0
17	15686	7.6	0
17	15686	7.7	0
17	15686	7.8	0
17	15686	7.9	0
17	15686	8	0
17	15686	8.1	0
17	15686	8.2	0
17	15686	8.3	0
17	15686	8.4	0
17	15686	8.5	0
17	15686	8.6	0
17	15686	8.7	0
17	15686	8.8	0
17	15686	8.9	0
17	15686	9	0
17	15686	9.1	0
17	15686	9.2	0
17	15686	9.3	0
17	15686	9.4	0
17	15686	9.5	0
17	15686	9.6	0
17	15686	9.7	0
17	15686	9.8	0
17	15686	9.9	0
17	15686	10	0
17	15686	10.1	0
17	15686	10.2	0
17	15686	10.3	0
17	15686	10.4	0
17	15686	10.5	0
17	15686	10.6	0
17	15686	10.7	0
17	15686	10.8	0
17	15686	10.9	0
17	15686	11	0
17	15686	11.1	0
17	15686	11.2	0
17	15686	11.3	0
17	15686	11.4	0
17	15686	11.5	0
17	15686	11.6	0
17	15686	11.7	0
17	15686	11.8	0
17	15686	11.9	0
17	15686	12	0
17	15686	12.1	0
17	15686	12.2	0
17	15686	12.3	0
17	15686	12.4	0
17	15686	12.5	0
17	15686	12.6	0
17	15686	12.7	0
17	15686	12.8	0
17	15686	12.9	0
17	15686	13	0
17	15686	13.1	0
17	15686	13.2	0
17	15686	13.3	0
17	15686	13.4	0
17	15686	13.5	0
17	15686	13.6	0
17	15686	13.7	0
17	15686	13.8	0
17	15686	13.9	0
17	15686	14	0
17	15686	14.1	0
17	15686	14.2	0
17	15686	14.3	0
17	15686	14.4	0
17	15686	14.5	0
17	15686	14.6	0
17	15686	14.7	0
17	15686	14.8	0
17	15686	14.9	0
17	15686	15	0
17	15686	15.1	0
17	15686	15.2	0
17	15686	15.3	0
17	15686	15.4	0
17	15686	15.5	0
17	15686	15.6	0
17	15686	15.7	0
17	15686	15.8	0
17	15686	15.9	0
17	15686	16	0
17	15686	16.1	0
17	15686	16.2	0
17	15686	16.3	0
17	15686	16.4	0
17	15686	16.5	0
17	15686	16.6	0
17	15686	16.7	0
17	15686	16.8	0
17	15686	16.9	0
17	15686	17	0
17	15686	17.1	0
17	15686	17.2	0
17	15686	17.3	0
17	15686	17.4	0
17	15686	17.5	0
17	15686	17.6	0
17	15686	17.7	0
17	15686	17.8	0
17	15686	17.9	0
17	15686	18	0
17	15686	18.1	0
17	15686	18.2	0
17	15686	18.3	0
17	15686	18.4	0
17	15686	18.5	0
17	15686	18.6	0
17	15686	18.7	0
17	15686	18.8	0
17	15686	18.9	0
17	15686	19	0
17	15686	19.1	0
17	15686	19.2	0
17	15686	19.3	0
17	15686	19.4	0
17	15686	19.5	0
17	15686	19.6	0
17	15686	19.7	0
17	15686	19.8	0
17	15686	19.9	0
17	15686	20	0
17	15686	20.1	0
17	15686	20.2	0
17	15686	20.3	0
17	15686	20.4	0
17	15686	20.5	0
17	15686	20.6	0
17	15686	20.7	0
17	15686	20.8	0
17	15686	20.9	0
17	15686	21	0
17	15686	21.1	0
17	15686	21.2	0
17	15686	21.3	0
17	15686	21.4	0
17	15686	21.5	0
17	15686	21.6	0
17	15686	21.7	0
17	15686	21.8	0
17	15686	21.9	0
17	15686	22	0
17	15686	22.1	0
17	15686	22.2	0
17	15686	22.3	0
17	15686	22.4	0
17	15686	22.5	0
17	15686	22.6	0
17	15686	22.7	0
17	15686	22.8	0
17	15686	22.9	0
17	15686	23	0
17	15686	23.1	0
17	15686	23.2	0
17	15686	23.3	0
17	15686	23.4	0
17	15686	23.5	0
17	15686	23.6	0
17	15686	23.7	0
17	15686	23.8	0
17	15686	23.9	0
17	15686	24	0
17	15686	24.1	0
17	15686	24.2	0
17	15686	24.3	0
17	15686	24.4	0
17	15686	24.5	0
17	15686	24.6	0
17	15686	24.7	0
17	15686	24.8	0
17	15686	24.9	0
17	15686	25	0
17	15686	25.1	0
17	15686	25.2	0
17	15686	25.3	0
17	15686	25.4	0
17	15686	25.5	0
17	15686	25.6	0
17	15686	25.7	0
17	15686	25.8	0
17	15686	25.9	0
17	15686	26	0
17	15686	26.1	0
17	15686	26.2	0
17	15686	26.3	0
17	15686	26.4	0
17	15686	26.5	0
17	15686	26.6	0
17	15686	26.7	0
17	15686	26.8	0
17	15686	26.9	0
17	15686	27	0
17	15686	27.1	0
17	15686	27.2	0
17	15686	27.3	0
17	15686	27.4	0
17	15686	27.5	0
17	15686	27.6	0
17	15686	27.7	0
17	15686	27.8	0
17	15686	27.9	0
17	15686	28	0
17	15686	28.1	0
17	15686	28.2	0
17	15686	28.3	0
17	15686	28.4	0
17	15686	28.5	0
17	15686	28.6	0
17	15686	28.7	0
17	15686	28.8	0
17	15686	28.9	0
17	15686	29	0
17	15686	29.1	0
17	15686	29.2	0
17	15686	29.3	0
17	15686	29.4	0
17	15686	29.5	0
17	15686	29.6	0
17	15686	29.7	0
17	15686	29.8	0
17	15686	29.9	0
17	15686	30	0
17	15686	30.1	0
17	15686	30.2	0
17	15686	30.3	0
17	15686	30.4	0
17	15686	30.5	0
17	15686	30.6	0
17	15686	30.7	0
17	15686	30.8	0
17	15686	30.9	0
17	15686	31	0
17	15686	31.1	0
17	15686	31.2	0
17	15686	31.3	0
17	15686	31.4	0
17	15686	31.5	0
17	15686	31.6	0
17	15686	31.7	0
17	15686	31.8	0
17	15686	31.9	0
17	15686	32	0
17	15686	32.1	0
17	15686	32.2	0
17	15686	32.3	0
17	15686	32.4	0
17	15686	32.5	0
17	15686	32.6	0
17	15686	32.7	0
17	15686	32.8	0
17	15686	32.9	0
17	15686	33	0
17	15686	33.1	0
17	15686	33.2	0
17	15686	33.3	0
17	15686	33.4	0
17	15686	33.5	0
17	15686	33.6	0
17	15686	33.7	0
17	15686	33.8	0
17	15686	33.9	0
17	15686	34	0
17	15686	34.1	0
17	15686	34.2	0
17	15686	34.3	0
17	15686	34.4	0
17	15686	34.5	0
17	15686	34.6	0
17	15686	34.7	0
17	15686	34.8	0
17	15686	34.9	0
17	15686	35	0
17	15686	35.1	0
17	15686	35.2	0
17	15686	35.3	0
17	15686	35.4	0
17	15686	35.5	0
17	15686	35.6	0
17	15686	35.7	0
17	15686	35.8	0
17	15686	35.9	0
17	15686	36	0
17	15686	36.1	0
17	15686	36.2	0
17	15686	36.3	0
17	15686	36.4	0
17	15686	36.5	0
17	15686	36.6	0
17	15686	36.7	0
17	15686	36.8	0
17	15686	36.9	0
17	15686	37	0
17	15686	37.1	0
17	15686	37.2	0
17	15686	37.3	0
17	15686	37.4	0
17	15686	37.5	0
17	15686	37.6	0
17	15686	37.7	0
17	15686	37.8	0
17	15686	37.9	0
17	15686	38	0
17	15686	38.1	0
17	15686	38.2	0
17	15686	38.3	0
17	15686	38.4	0
17	15686	38.5	0
17	15686	38.6	0
17	15686	38.7	0
17	15686	38.8	0
17	15686	38.9	0
17	15686	39	0
17	15686	39.1	0
17	15686	39.2	0
17	15686	39.3	0
17	15686	39.4	0
17	15686	39.5	0
17	15686	39.6	0
17	15686	39.7	0
17	15686	39.8	0
17	15686	39.9	0
17	15686	40	0
17	15686	40.1	0
17	15686	40.2	0
17	15686	40.3	0
17	15686	40.4	0
17	15686	40.5	0
17	15686	40.6	0
17	15686	40.7	0
17	15686	40.8	0
17	15686	40.9	0
17	15686	41	0
17	15686	41.1	0
17	15686	41.2	0
17	15686	41.3	0
17	15686	41.4	0
17	15686	41.5	0
17	15686	41.6	0
17	15686	41.7	0
17	15686	41.8	0
17	15686	41.9	0
17	15686	42	0
17	15686	42.1	0
17	15686	42.2	0
17	15686	42.3	0
17	15686	42.4	0
17	15686	42.5	0
17	15686	42.6	0
17	15686	42.7	0
17	15686	42.8	0
17	15686	42.9	0
17	15686	43	0
17	15686	43.1	0
17	15686	43.2	0
17	15686	43.3	0
17	15686	43.4	0
17	15686	43.5	0
17	15686	43.6	0
17	15686	43.7	0
17	15686	43.8	0
17	15686	43.9	0
17	15686	44	0
17	15686	44.1	0
17	15686	44.2	0
17	15686	44.3	0
17	15686	44.4	0
17	15686	44.5	0
17	15686	44.6	0
17	15686	44.7	0
17	15686	44.8	0
17	15686	44.9	0
17	15686	45	0
17	15686	45.1	0
17	15686	45.2	0
17	15686	45.3	0
17	15686	45.4	0
17	15686	45.5	0
17	15686	45.6	0
17	15686	45.7	0
17	15686	45.8	0
17	15686	45.9	0
17	15686	46	0
17	15686	46.1	0
17	15686	46.2	0
17	15686	46.3	0
17	15686	46.4	0
17	15686	46.5	0
17	15686	46.6	0
17	15686	46.7	0
17	15686	46.8	0
17	15686	46.9	0
17	15686	47	0
17	15686	47.1	0
17	15686	47.2	0
17	15686	47.3	0
17	15686	47.4	0
17	15686	47.5	0
17	15686	47.6	0
17	15686	47.7	0
17	15686	47.8	0
17	15686	47.9	0
17	15686	48	0
17	15686	48.1	0
17	15686	48.2	0
17	15686	48.3	0
17	15686	48.4	0
17	15686	48.5	0
17	15686	48.6	0
17	15686	48.7	0
17	15686	48.8	0
17	15686	48.9	0
17	15686	49	0
17	15686	49.1	0
17	15686	49.2	0
17	15686	49.3	0
17	15686	49.4	0
17	15686	49.5	0
17	15686	49.6	0
17	15686	49.7	0
17	15686	49.8	0
17	15686	49.9	0
17	15686	50	0
17	15686	50.1	0
17	15686	50.2	0
17	15686	50.3	0
17	15686	50.4	0
17	15686	50.5	0
17	15686	50.6	0
17	15686	50.7	0
17	15686	50.8	0
17	15686	50.9	0
17	15686	51	0
17	15686	51.1	0
17	15686	51.2	0
17	15686	51.3	0
17	15686	51.4	0
17	15686	51.5	0
17	15686	51.6	0
17	15686	51.7	0
17	15686	51.8	0
17	15686	51.9	0
17	15686	52	0
17	15686	52.1	0
17	15686	52.2	0
17	15686	52.3	0
17	15686	52.4	0
17	15686	52.5	0
17	15686	52.6	0
17	15686	52.7	0
17	15686	52.8	0
17	15686	52.9	0
17	15686	53	0
17	15686	53.1	0
17	15686	53.2	0
17	15686	53.3	0
17	15686	53.4	0
17	15686	53.5	0
17	15686	53.6	0
17	15686	53.7	0
17	15686	53.8	0
17	15686	53.9	0
17	15686	54	0
17	15686	54.1	0
17	15686	54.2	0
17	15686	54.3	0
17	15686	54.4	0
17	15686	54.5	0
17	15686	54.6	0
17	15686	54.7	0
17	15686	54.8	0
17	15686	54.9	0
17	15686	55	0
17	15686	55.1	0
17	15686	55.2	0
17	15686	55.3	0
17	15686	55.4	0
17	15686	55.5	0
17	15686	55.6	0
17	15686	55.7	0
17	15686	55.8	0
17	15686	55.9	0
17	15686	56	0
17	15686	56.1	0
17	15686	56.2	0
17	15686	56.3	0
17	15686	56.4	0
17	15686	56.5	0
17	15686	56.6	0
17	15686	56.7	0
17	15686	56.8	0
17	15686	56.9	0
17	15686	57	0
17	15686	57.1	0
17	15686	57.2	0
17	15686	57.3	0
17	15686	57.4	0
17	15686	57.5	0
17	15686	57.6	0
17	15686	57.7	0
17	15686	57.8	0
17	15686	57.9	0
17	15686	58	0
17	15686	58.1	0
17	15686	58.2	0
17	15686	58.3	0
17	15686	58.4	0
17	15686	58.5	0
17	15686	58.6	0
17	15686	58.7	0
17	15686	58.8	0
17	15686	58.9	0
17	15686	59	0
17	15686	59.1	0
17	15686	59.2	0
17	15686	59.3	0
17	15686	59.4	0
17	15686	59.5	0
17	15686	59.6	0
17	15686	59.7	0
17	15686	59.8	0
17	15686	59.9	0
17	15686	60	0

